all.pdbqt
 OpenBabel04112516173D

 38 42  0  0  0  0  0  0  0  0999 V2000
   67.8690   49.3560   53.3040 F   0  0  0  0  0  0  0  0  0  0  0  0
   65.4410   47.6140   51.5400 N   0  0  0  0  0  0  0  0  0  0  0  0
   66.1340   46.3770   53.2240 N   0  0  0  0  0  0  0  0  0  0  0  0
   66.2010   48.6050   51.7880 C   0  0  0  0  0  0  0  0  0  0  0  0
   65.3880   46.5370   52.2110 C   0  0  0  0  0  0  0  0  0  0  0  0
   67.0050   48.4580   52.8650 C   0  0  0  0  0  0  0  0  0  0  0  0
   66.9220   47.3070   53.5480 C   0  0  0  0  0  3  0  0  0  0  0  0
   64.6130   45.5640   51.9350 N   0  0  0  0  0  0  0  0  0  0  0  0
   65.0830   44.6250   51.9990 H   0  0  0  0  0  0  0  0  0  0  0  0
   63.3860   45.5090   51.5990 C   0  0  0  0  0  0  0  0  0  0  0  0
   62.8840   46.0230   50.5520 N   0  0  0  0  0  0  0  0  0  0  0  0
   61.6480   45.9120   50.3080 C   0  0  0  0  0  3  0  0  0  0  0  0
   60.7700   45.2690   51.0920 C   0  0  0  0  0  0  0  0  0  0  0  0
   61.2730   44.7150   52.2060 C   0  0  0  0  0  3  0  0  0  0  0  0
   62.5860   44.8400   52.4530 C   0  0  0  0  0  3  0  0  0  0  0  0
   59.3040   45.1770   50.7300 C   0  0  0  0  0  2  0  0  0  0  0  0
   58.5290   44.6190   51.8320 N   0  0  0  0  0  0  0  0  0  0  0  0
   58.1260   43.2500   51.5510 C   0  0  0  0  0  2  0  0  0  0  0  0
   57.3390   42.6580   52.7320 C   0  0  0  0  0  2  0  0  0  0  0  0
   56.1550   43.4520   53.0310 N   0  0  0  0  0  0  0  0  0  0  0  0
   56.5540   44.8250   53.3010 C   0  0  0  0  0  2  0  0  0  0  0  0
   57.3480   45.4170   52.1240 C   0  0  0  0  0  2  0  0  0  0  0  0
   55.4000   42.8550   54.1290 C   0  0  0  0  0  2  0  0  0  0  0  0
   56.2670   42.4480   55.3320 C   0  0  0  0  0  1  0  0  0  0  0  0
   66.1290   49.6860   50.9630 C   0  0  0  0  0  0  0  0  0  0  0  0
   67.2500   50.3710   50.6180 C   0  0  0  0  0  3  0  0  0  0  0  0
   67.2630   51.4490   49.8170 C   0  0  0  0  0  0  0  0  0  0  0  0
   66.0960   51.8740   49.3200 C   0  0  0  0  0  0  0  0  0  0  0  0
   68.3950   52.0720   49.5260 F   0  0  0  0  0  0  0  0  0  0  0  0
   65.8500   52.8530   48.5580 N   0  0  0  0  0  0  0  0  0  0  0  0
   64.9660   51.2260   49.6270 C   0  0  0  0  0  0  0  0  0  0  0  0
   64.5960   52.8540   48.3650 C   0  0  0  0  0  0  0  0  0  0  0  0
   64.0790   51.8820   49.0000 N   0  0  0  0  0  0  0  0  0  0  0  0
   64.0270   53.9450   47.5020 C   0  0  0  0  0  1  0  0  0  0  0  0
   64.9760   50.1580   50.4350 C   0  0  0  0  0  3  0  0  0  0  0  0
   62.6360   51.5500   49.0270 C   0  0  0  0  0  3  0  0  0  0  0  0
   61.9640   51.5660   50.4090 C   0  0  0  0  0  1  0  0  0  0  0  0
   62.3860   50.2190   48.3000 C   0  0  0  0  0  1  0  0  0  0  0  0
  2  4  1  0  0  0  0
  2  5  2  0  0  0  0
  3  7  2  0  0  0  0
  4  6  2  0  0  0  0
  5  3  1  0  0  0  0
  6  1  1  0  0  0  0
  6  7  1  0  0  0  0
  8  9  1  0  0  0  0
  8  5  1  0  0  0  0
 10  8  1  0  0  0  0
 10 15  1  0  0  0  0
 11 10  2  0  0  0  0
 12 11  1  0  0  0  0
 12 13  2  0  0  0  0
 13 14  1  0  0  0  0
 14 15  2  0  0  0  0
 16 13  1  0  0  0  0
 16 17  1  0  0  0  0
 17 22  1  0  0  0  0
 18 17  1  0  0  0  0
 18 19  1  0  0  0  0
 19 20  1  0  0  0  0
 20 21  1  0  0  0  0
 20 23  1  0  0  0  0
 22 21  1  0  0  0  0
 23 24  1  0  0  0  0
 25  4  1  0  0  0  0
 26 25  1  0  0  0  0
 27 26  2  0  0  0  0
 28 31  2  0  0  0  0
 28 27  1  0  0  0  0
 29 27  1  0  0  0  0
 30 28  1  0  0  0  0
 31 35  1  0  0  0  0
 32 30  2  0  0  0  0
 32 33  1  0  0  0  0
 33 36  1  0  0  0  0
 33 31  1  0  0  0  0
 34 32  1  0  0  0  0
 35 25  2  0  0  0  0
 36 37  1  0  0  0  0
 38 36  1  0  0  0  0
M  END
>  <MODEL>
1

>  <REMARK>
 VINA RESULT:    -9.381      0.000      0.000
 INTER + INTRA:         -14.097
 INTER:                 -13.221
 INTRA:                  -0.876
 UNBOUND:                -0.876
  7 active torsions:
  status: ('A' for Active; 'I' for Inactive)
    1  A    between atoms: N3_3  and  C15_15 
    2  A    between atoms: N4_4  and  C16_16 
    3  A    between atoms: N5_5  and  C19_19 
    4  A    between atoms: N8_8  and  C31_31 
    5  A    between atoms: N8_8  and  C35_35 
    6  A    between atoms: C15_15  and  C17_17 
    7  A    between atoms: C28_28  and  C34_34 

>  <TORSDO>
F 7

$$$$
all.pdbqt
 OpenBabel04112516173D

 38 42  0  0  0  0  0  0  0  0999 V2000
   65.1770   52.3910   48.1670 F   0  0  0  0  0  0  0  0  0  0  0  0
   65.8650   50.1900   50.7600 N   0  0  0  0  0  0  0  0  0  0  0  0
   67.7460   51.1050   50.0730 N   0  0  0  0  0  0  0  0  0  0  0  0
   65.1160   50.8040   49.9340 C   0  0  0  0  0  0  0  0  0  0  0  0
   67.1260   50.3150   50.8480 C   0  0  0  0  0  0  0  0  0  0  0  0
   65.7540   51.6530   49.0990 C   0  0  0  0  0  0  0  0  0  0  0  0
   67.0860   51.7580   49.2210 C   0  0  0  0  0  3  0  0  0  0  0  0
   67.8460   49.6840   51.6880 N   0  0  0  0  0  0  0  0  0  0  0  0
   68.7250   50.1980   51.9550 H   0  0  0  0  0  0  0  0  0  0  0  0
   67.7090   48.5580   52.2670 C   0  0  0  0  0  0  0  0  0  0  0  0
   67.1380   48.3690   53.3850 N   0  0  0  0  0  0  0  0  0  0  0  0
   67.0530   47.2070   53.8780 C   0  0  0  0  0  3  0  0  0  0  0  0
   67.5350   46.0960   53.3000 C   0  0  0  0  0  0  0  0  0  0  0  0
   68.1450   46.2670   52.1170 C   0  0  0  0  0  3  0  0  0  0  0  0
   68.2280   47.5040   51.6060 C   0  0  0  0  0  3  0  0  0  0  0  0
   67.3920   44.7390   53.9530 C   0  0  0  0  0  2  0  0  0  0  0  0
   65.9950   44.4510   54.2540 N   0  0  0  0  0  0  0  0  0  0  0  0
   65.8640   43.2190   55.0170 C   0  0  0  0  0  2  0  0  0  0  0  0
   64.3920   42.9410   55.3600 C   0  0  0  0  0  2  0  0  0  0  0  0
   63.5770   42.8450   54.1560 N   0  0  0  0  0  0  0  0  0  0  0  0
   63.7140   44.0720   53.3860 C   0  0  0  0  0  2  0  0  0  0  0  0
   65.1870   44.3560   53.0470 C   0  0  0  0  0  2  0  0  0  0  0  0
   62.1900   42.5440   54.4980 C   0  0  0  0  0  2  0  0  0  0  0  0
   61.1630   43.1540   53.5300 C   0  0  0  0  0  1  0  0  0  0  0  0
   63.7780   50.5500   49.9760 C   0  0  0  0  0  0  0  0  0  0  0  0
   62.9090   51.4880   50.4330 C   0  0  0  0  0  3  0  0  0  0  0  0
   61.5790   51.3130   50.5120 C   0  0  0  0  0  0  0  0  0  0  0  0
   61.0760   50.1410   50.1090 C   0  0  0  0  0  0  0  0  0  0  0  0
   60.7890   52.2720   50.9730 F   0  0  0  0  0  0  0  0  0  0  0  0
   59.8760   49.7400   50.0890 N   0  0  0  0  0  0  0  0  0  0  0  0
   61.8940   49.1900   49.6440 C   0  0  0  0  0  0  0  0  0  0  0  0
   59.8990   48.5590   49.6260 C   0  0  0  0  0  0  0  0  0  0  0  0
   61.1010   48.2420   49.3600 N   0  0  0  0  0  0  0  0  0  0  0  0
   58.5890   47.8300   49.5180 C   0  0  0  0  0  1  0  0  0  0  0  0
   63.2190   49.3830   49.5820 C   0  0  0  0  0  3  0  0  0  0  0  0
   61.5380   46.9410   48.8040 C   0  0  0  0  0  3  0  0  0  0  0  0
   61.0960   46.6370   47.3640 C   0  0  0  0  0  1  0  0  0  0  0  0
   61.1510   45.8010   49.7590 C   0  0  0  0  0  1  0  0  0  0  0  0
  1  6  1  0  0  0  0
  2  5  2  0  0  0  0
  3  5  1  0  0  0  0
  4 25  1  0  0  0  0
  4  2  1  0  0  0  0
  5  8  1  0  0  0  0
  6  7  1  0  0  0  0
  6  4  2  0  0  0  0
  7  3  2  0  0  0  0
  8  9  1  0  0  0  0
  8 10  1  0  0  0  0
 10 11  1  0  0  0  0
 11 12  2  0  0  0  0
 13 12  1  0  0  0  0
 13 16  1  0  0  0  0
 14 13  2  0  0  0  0
 15 14  1  0  0  0  0
 15 10  2  0  0  0  0
 16 17  1  0  0  0  0
 17 18  1  0  0  0  0
 18 19  1  0  0  0  0
 20 23  1  0  0  0  0
 20 19  1  0  0  0  0
 21 20  1  0  0  0  0
 22 21  1  0  0  0  0
 22 17  1  0  0  0  0
 24 23  1  0  0  0  0
 25 26  1  0  0  0  0
 26 27  2  0  0  0  0
 27 29  1  0  0  0  0
 28 27  1  0  0  0  0
 30 28  1  0  0  0  0
 31 28  2  0  0  0  0
 32 30  2  0  0  0  0
 33 32  1  0  0  0  0
 33 31  1  0  0  0  0
 34 32  1  0  0  0  0
 35 31  1  0  0  0  0
 35 25  2  0  0  0  0
 36 33  1  0  0  0  0
 36 38  1  0  0  0  0
 37 36  1  0  0  0  0
M  END
>  <MODEL>
2

>  <REMARK>
 VINA RESULT:    -9.058      3.142      6.135
 INTER + INTRA:         -13.641
 INTER:                 -12.191
 INTRA:                  -1.450
 UNBOUND:                -0.876
  7 active torsions:
  status: ('A' for Active; 'I' for Inactive)
    1  A    between atoms: N3_3  and  C15_15 
    2  A    between atoms: N4_4  and  C16_16 
    3  A    between atoms: N5_5  and  C19_19 
    4  A    between atoms: N8_8  and  C31_31 
    5  A    between atoms: N8_8  and  C35_35 
    6  A    between atoms: C15_15  and  C17_17 
    7  A    between atoms: C28_28  and  C34_34 

>  <TORSDO>
F 7

$$$$
all.pdbqt
 OpenBabel04112516173D

 38 42  0  0  0  0  0  0  0  0999 V2000
   53.8730   44.5260   51.9640 F   0  0  0  0  0  0  0  0  0  0  0  0
   57.3150   44.7940   52.3190 N   0  0  0  0  0  0  0  0  0  0  0  0
   56.7840   45.0860   50.2030 N   0  0  0  0  0  0  0  0  0  0  0  0
   56.1220   44.6140   52.7260 C   0  0  0  0  0  0  0  0  0  0  0  0
   57.6590   45.0220   51.1180 C   0  0  0  0  0  0  0  0  0  0  0  0
   55.1710   44.6800   51.7680 C   0  0  0  0  0  0  0  0  0  0  0  0
   55.5730   44.9220   50.5120 C   0  0  0  0  0  3  0  0  0  0  0  0
   58.8650   45.1980   50.7450 N   0  0  0  0  0  0  0  0  0  0  0  0
   59.4660   44.3410   50.8590 H   0  0  0  0  0  0  0  0  0  0  0  0
   59.4800   46.2030   50.2630 C   0  0  0  0  0  0  0  0  0  0  0  0
   59.2970   47.4120   50.6040 N   0  0  0  0  0  0  0  0  0  0  0  0
   59.9610   48.3430   50.0630 C   0  0  0  0  0  3  0  0  0  0  0  0
   60.8890   48.1640   49.1100 C   0  0  0  0  0  0  0  0  0  0  0  0
   61.1030   46.8950   48.7300 C   0  0  0  0  0  3  0  0  0  0  0  0
   60.3920   45.9180   49.3130 C   0  0  0  0  0  3  0  0  0  0  0  0
   61.6450   49.3300   48.5120 C   0  0  0  0  0  2  0  0  0  0  0  0
   62.8400   49.6300   49.2910 N   0  0  0  0  0  0  0  0  0  0  0  0
   63.2330   51.0230   49.1350 C   0  0  0  0  0  2  0  0  0  0  0  0
   64.4730   51.3400   49.9850 C   0  0  0  0  0  2  0  0  0  0  0  0
   65.5960   50.4850   49.6240 N   0  0  0  0  0  0  0  0  0  0  0  0
   65.2030   49.0920   49.7680 C   0  0  0  0  0  2  0  0  0  0  0  0
   63.9570   48.7730   48.9240 C   0  0  0  0  0  2  0  0  0  0  0  0
   66.7760   50.8250   50.4140 C   0  0  0  0  0  2  0  0  0  0  0  0
   67.7290   51.8100   49.7190 C   0  0  0  0  0  1  0  0  0  0  0  0
   55.9290   44.3800   54.0540 C   0  0  0  0  0  0  0  0  0  0  0  0
   55.1680   45.2190   54.8030 C   0  0  0  0  0  3  0  0  0  0  0  0
   54.9360   45.0620   56.1170 C   0  0  0  0  0  0  0  0  0  0  0  0
   55.4860   44.0070   56.7280 C   0  0  0  0  0  0  0  0  0  0  0  0
   54.1860   45.9240   56.7870 F   0  0  0  0  0  0  0  0  0  0  0  0
   55.4180   43.6490   57.9400 N   0  0  0  0  0  0  0  0  0  0  0  0
   56.2380   43.1480   56.0290 C   0  0  0  0  0  0  0  0  0  0  0  0
   56.1050   42.5870   58.0400 C   0  0  0  0  0  0  0  0  0  0  0  0
   56.5840   42.2940   56.9000 N   0  0  0  0  0  0  0  0  0  0  0  0
   56.2140   41.9570   59.4000 C   0  0  0  0  0  1  0  0  0  0  0  0
   56.4630   43.3300   54.7210 C   0  0  0  0  0  3  0  0  0  0  0  0
   57.4440   41.1240   56.6090 C   0  0  0  0  0  3  0  0  0  0  0  0
   56.8460   39.7460   56.9340 C   0  0  0  0  0  1  0  0  0  0  0  0
   58.8210   41.3040   57.2660 C   0  0  0  0  0  1  0  0  0  0  0  0
  2  4  1  0  0  0  0
  3  7  2  0  0  0  0
  3  5  1  0  0  0  0
  4 25  1  0  0  0  0
  5  2  2  0  0  0  0
  6  1  1  0  0  0  0
  6  4  2  0  0  0  0
  7  6  1  0  0  0  0
  8  9  1  0  0  0  0
  8  5  1  0  0  0  0
 10 11  1  0  0  0  0
 10  8  1  0  0  0  0
 12 11  2  0  0  0  0
 13 12  1  0  0  0  0
 14 13  2  0  0  0  0
 14 15  1  0  0  0  0
 15 10  2  0  0  0  0
 16 13  1  0  0  0  0
 16 17  1  0  0  0  0
 18 17  1  0  0  0  0
 18 19  1  0  0  0  0
 20 21  1  0  0  0  0
 20 19  1  0  0  0  0
 20 23  1  0  0  0  0
 22 17  1  0  0  0  0
 22 21  1  0  0  0  0
 24 23  1  0  0  0  0
 25 35  2  0  0  0  0
 25 26  1  0  0  0  0
 26 27  2  0  0  0  0
 27 28  1  0  0  0  0
 27 29  1  0  0  0  0
 28 30  1  0  0  0  0
 30 32  2  0  0  0  0
 31 28  2  0  0  0  0
 31 33  1  0  0  0  0
 32 34  1  0  0  0  0
 33 32  1  0  0  0  0
 35 31  1  0  0  0  0
 36 33  1  0  0  0  0
 36 37  1  0  0  0  0
 36 38  1  0  0  0  0
M  END
>  <MODEL>
3

>  <REMARK>
 VINA RESULT:    -8.988      4.425     11.817
 INTER + INTRA:         -13.543
 INTER:                 -12.599
 INTRA:                  -0.944
 UNBOUND:                -0.876
  7 active torsions:
  status: ('A' for Active; 'I' for Inactive)
    1  A    between atoms: N3_3  and  C15_15 
    2  A    between atoms: N4_4  and  C16_16 
    3  A    between atoms: N5_5  and  C19_19 
    4  A    between atoms: N8_8  and  C31_31 
    5  A    between atoms: N8_8  and  C35_35 
    6  A    between atoms: C15_15  and  C17_17 
    7  A    between atoms: C28_28  and  C34_34 

>  <TORSDO>
F 7

$$$$
all.pdbqt
 OpenBabel04112516173D

 38 42  0  0  0  0  0  0  0  0999 V2000
   67.7420   49.6100   53.4550 F   0  0  0  0  0  0  0  0  0  0  0  0
   65.6850   47.5490   51.5680 N   0  0  0  0  0  0  0  0  0  0  0  0
   66.3990   46.4370   53.3290 N   0  0  0  0  0  0  0  0  0  0  0  0
   66.2970   48.6300   51.8440 C   0  0  0  0  0  0  0  0  0  0  0  0
   65.7160   46.4850   52.2620 C   0  0  0  0  0  0  0  0  0  0  0  0
   67.0300   48.6040   52.9790 C   0  0  0  0  0  0  0  0  0  0  0  0
   67.0390   47.4630   53.6840 C   0  0  0  0  0  3  0  0  0  0  0  0
   65.0900   45.4180   51.9560 N   0  0  0  0  0  0  0  0  0  0  0  0
   65.5410   44.8780   51.1730 H   0  0  0  0  0  0  0  0  0  0  0  0
   64.0300   44.8800   52.4120 C   0  0  0  0  0  0  0  0  0  0  0  0
   63.9810   44.0350   53.3590 N   0  0  0  0  0  0  0  0  0  0  0  0
   62.8740   43.5580   53.7400 C   0  0  0  0  0  3  0  0  0  0  0  0
   61.6820   43.8750   53.2110 C   0  0  0  0  0  0  0  0  0  0  0  0
   61.7040   44.7660   52.2070 C   0  0  0  0  0  3  0  0  0  0  0  0
   62.8850   45.2650   51.8130 C   0  0  0  0  0  3  0  0  0  0  0  0
   60.3990   43.2610   53.7240 C   0  0  0  0  0  2  0  0  0  0  0  0
   59.4180   43.1340   52.6530 N   0  0  0  0  0  0  0  0  0  0  0  0
   58.1430   43.7220   53.0350 C   0  0  0  0  0  2  0  0  0  0  0  0
   57.1250   43.6150   51.8880 C   0  0  0  0  0  2  0  0  0  0  0  0
   56.9110   42.2280   51.4970 N   0  0  0  0  0  0  0  0  0  0  0  0
   58.1870   41.6330   51.1260 C   0  0  0  0  0  2  0  0  0  0  0  0
   59.2100   41.7460   52.2680 C   0  0  0  0  0  2  0  0  0  0  0  0
   55.9150   42.1410   50.4340 C   0  0  0  0  0  2  0  0  0  0  0  0
   55.3960   43.5060   49.9530 C   0  0  0  0  0  1  0  0  0  0  0  0
   66.1540   49.6800   50.9870 C   0  0  0  0  0  0  0  0  0  0  0  0
   67.2300   50.4100   50.5990 C   0  0  0  0  0  3  0  0  0  0  0  0
   67.1730   51.4610   49.7650 C   0  0  0  0  0  0  0  0  0  0  0  0
   65.9760   51.8110   49.2800 C   0  0  0  0  0  0  0  0  0  0  0  0
   68.2650   52.1320   49.4310 F   0  0  0  0  0  0  0  0  0  0  0  0
   65.6660   52.7510   48.4920 N   0  0  0  0  0  0  0  0  0  0  0  0
   64.8870   51.1150   49.6290 C   0  0  0  0  0  0  0  0  0  0  0  0
   64.4100   52.6820   48.3260 C   0  0  0  0  0  0  0  0  0  0  0  0
   63.9560   51.7050   49.0010 N   0  0  0  0  0  0  0  0  0  0  0  0
   63.7690   53.7140   47.4420 C   0  0  0  0  0  1  0  0  0  0  0  0
   64.9670   50.0750   50.4690 C   0  0  0  0  0  3  0  0  0  0  0  0
   62.5330   51.3010   49.0680 C   0  0  0  0  0  3  0  0  0  0  0  0
   61.8490   51.4550   50.4370 C   0  0  0  0  0  1  0  0  0  0  0  0
   62.3610   49.8780   48.5150 C   0  0  0  0  0  1  0  0  0  0  0  0
  2  4  1  0  0  0  0
  2  5  2  0  0  0  0
  3  7  2  0  0  0  0
  4  6  2  0  0  0  0
  5  3  1  0  0  0  0
  6  1  1  0  0  0  0
  6  7  1  0  0  0  0
  8  5  1  0  0  0  0
  8 10  1  0  0  0  0
  9  8  1  0  0  0  0
 10 11  1  0  0  0  0
 11 12  2  0  0  0  0
 13 16  1  0  0  0  0
 13 12  1  0  0  0  0
 14 13  2  0  0  0  0
 15 14  1  0  0  0  0
 15 10  2  0  0  0  0
 17 18  1  0  0  0  0
 17 16  1  0  0  0  0
 19 18  1  0  0  0  0
 20 19  1  0  0  0  0
 21 20  1  0  0  0  0
 21 22  1  0  0  0  0
 22 17  1  0  0  0  0
 23 20  1  0  0  0  0
 24 23  1  0  0  0  0
 25  4  1  0  0  0  0
 26 25  1  0  0  0  0
 27 26  2  0  0  0  0
 28 31  2  0  0  0  0
 28 27  1  0  0  0  0
 29 27  1  0  0  0  0
 30 28  1  0  0  0  0
 31 35  1  0  0  0  0
 32 30  2  0  0  0  0
 32 33  1  0  0  0  0
 33 36  1  0  0  0  0
 33 31  1  0  0  0  0
 34 32  1  0  0  0  0
 35 25  2  0  0  0  0
 36 37  1  0  0  0  0
 38 36  1  0  0  0  0
M  END
>  <MODEL>
4

>  <REMARK>
 VINA RESULT:    -8.976      1.291      2.004
 INTER + INTRA:         -13.526
 INTER:                 -12.509
 INTRA:                  -1.016
 UNBOUND:                -0.876
  7 active torsions:
  status: ('A' for Active; 'I' for Inactive)
    1  A    between atoms: N3_3  and  C15_15 
    2  A    between atoms: N4_4  and  C16_16 
    3  A    between atoms: N5_5  and  C19_19 
    4  A    between atoms: N8_8  and  C31_31 
    5  A    between atoms: N8_8  and  C35_35 
    6  A    between atoms: C15_15  and  C17_17 
    7  A    between atoms: C28_28  and  C34_34 

>  <TORSDO>
F 7

$$$$
all.pdbqt
 OpenBabel04112516173D

 38 42  0  0  0  0  0  0  0  0999 V2000
   64.3040   48.0030   51.7410 F   0  0  0  0  0  0  0  0  0  0  0  0
   67.7580   48.3300   51.6860 N   0  0  0  0  0  0  0  0  0  0  0  0
   67.2240   46.5200   52.8200 N   0  0  0  0  0  0  0  0  0  0  0  0
   66.5610   48.6700   51.4170 C   0  0  0  0  0  0  0  0  0  0  0  0
   68.1030   47.3070   52.3550 C   0  0  0  0  0  0  0  0  0  0  0  0
   65.6060   47.8450   51.9010 C   0  0  0  0  0  0  0  0  0  0  0  0
   66.0090   46.7750   52.6020 C   0  0  0  0  0  3  0  0  0  0  0  0
   69.3130   46.9960   52.6060 N   0  0  0  0  0  0  0  0  0  0  0  0
   69.7200   47.5250   53.4200 H   0  0  0  0  0  0  0  0  0  0  0  0
   70.1210   46.1720   52.0670 C   0  0  0  0  0  0  0  0  0  0  0  0
   69.9720   44.9120   52.0290 N   0  0  0  0  0  0  0  0  0  0  0  0
   70.8360   44.1780   51.4680 C   0  0  0  0  0  3  0  0  0  0  0  0
   71.9540   44.6280   50.8780 C   0  0  0  0  0  0  0  0  0  0  0  0
   72.1370   45.9570   50.9040 C   0  0  0  0  0  3  0  0  0  0  0  0
   71.2130   46.7240   51.5020 C   0  0  0  0  0  3  0  0  0  0  0  0
   72.9400   43.6840   50.2240 C   0  0  0  0  0  2  0  0  0  0  0  0
   74.2470   44.3140   50.0840 N   0  0  0  0  0  0  0  0  0  0  0  0
   74.8210   44.0470   48.7740 C   0  0  0  0  0  2  0  0  0  0  0  0
   76.1840   44.7420   48.6210 C   0  0  0  0  0  2  0  0  0  0  0  0
   77.1190   44.3040   49.6490 N   0  0  0  0  0  0  0  0  0  0  0  0
   76.5430   44.5590   50.9610 C   0  0  0  0  0  2  0  0  0  0  0  0
   75.1760   43.8710   51.1130 C   0  0  0  0  0  2  0  0  0  0  0  0
   78.4190   44.9440   49.4670 C   0  0  0  0  0  2  0  0  0  0  0  0
   78.6360   46.1770   50.3610 C   0  0  0  0  0  1  0  0  0  0  0  0
   66.3690   49.8020   50.6850 C   0  0  0  0  0  0  0  0  0  0  0  0
   67.4170   50.5960   50.3480 C   0  0  0  0  0  3  0  0  0  0  0  0
   67.3110   51.7310   49.6360 C   0  0  0  0  0  0  0  0  0  0  0  0
   66.0920   52.1010   49.2260 C   0  0  0  0  0  0  0  0  0  0  0  0
   68.3780   52.4610   49.3480 F   0  0  0  0  0  0  0  0  0  0  0  0
   65.7380   53.1130   48.5550 N   0  0  0  0  0  0  0  0  0  0  0  0
   65.0300   51.3440   49.5280 C   0  0  0  0  0  0  0  0  0  0  0  0
   64.4790   53.0310   48.4180 C   0  0  0  0  0  0  0  0  0  0  0  0
   64.0670   51.9750   48.9940 N   0  0  0  0  0  0  0  0  0  0  0  0
   63.7890   54.1370   47.6700 C   0  0  0  0  0  1  0  0  0  0  0  0
   65.1590   50.2210   50.2460 C   0  0  0  0  0  3  0  0  0  0  0  0
   62.6560   51.5310   49.0560 C   0  0  0  0  0  3  0  0  0  0  0  0
   62.0190   51.4950   50.4550 C   0  0  0  0  0  1  0  0  0  0  0  0
   62.4940   50.1840   48.3350 C   0  0  0  0  0  1  0  0  0  0  0  0
  1  6  1  0  0  0  0
  2  5  2  0  0  0  0
  4  2  1  0  0  0  0
  4  6  2  0  0  0  0
  5  8  1  0  0  0  0
  5  3  1  0  0  0  0
  6  7  1  0  0  0  0
  7  3  2  0  0  0  0
  8  9  1  0  0  0  0
 10  8  1  0  0  0  0
 11 10  1  0  0  0  0
 12 11  2  0  0  0  0
 13 14  2  0  0  0  0
 13 12  1  0  0  0  0
 14 15  1  0  0  0  0
 15 10  2  0  0  0  0
 16 13  1  0  0  0  0
 17 16  1  0  0  0  0
 17 22  1  0  0  0  0
 18 17  1  0  0  0  0
 19 18  1  0  0  0  0
 19 20  1  0  0  0  0
 20 21  1  0  0  0  0
 21 22  1  0  0  0  0
 23 20  1  0  0  0  0
 23 24  1  0  0  0  0
 25  4  1  0  0  0  0
 26 25  1  0  0  0  0
 27 26  2  0  0  0  0
 28 31  2  0  0  0  0
 28 27  1  0  0  0  0
 29 27  1  0  0  0  0
 30 28  1  0  0  0  0
 31 35  1  0  0  0  0
 32 30  2  0  0  0  0
 32 33  1  0  0  0  0
 33 36  1  0  0  0  0
 33 31  1  0  0  0  0
 34 32  1  0  0  0  0
 35 25  2  0  0  0  0
 36 37  1  0  0  0  0
 38 36  1  0  0  0  0
M  END
>  <MODEL>
5

>  <REMARK>
 VINA RESULT:    -8.895      5.656     10.336
 INTER + INTRA:         -13.411
 INTER:                 -12.659
 INTRA:                  -0.752
 UNBOUND:                -0.876
  7 active torsions:
  status: ('A' for Active; 'I' for Inactive)
    1  A    between atoms: N3_3  and  C15_15 
    2  A    between atoms: N4_4  and  C16_16 
    3  A    between atoms: N5_5  and  C19_19 
    4  A    between atoms: N8_8  and  C31_31 
    5  A    between atoms: N8_8  and  C35_35 
    6  A    between atoms: C15_15  and  C17_17 
    7  A    between atoms: C28_28  and  C34_34 

>  <TORSDO>
F 7

$$$$
all.pdbqt
 OpenBabel04112516173D

 38 42  0  0  0  0  0  0  0  0999 V2000
   54.9330   44.0810   50.7480 F   0  0  0  0  0  0  0  0  0  0  0  0
   57.6660   46.2120   50.9200 N   0  0  0  0  0  0  0  0  0  0  0  0
   56.2530   46.9730   49.4130 N   0  0  0  0  0  0  0  0  0  0  0  0
   56.9740   45.1930   51.2410 C   0  0  0  0  0  0  0  0  0  0  0  0
   57.3440   47.0800   50.0490 C   0  0  0  0  0  0  0  0  0  0  0  0
   55.8050   45.0590   50.5760 C   0  0  0  0  0  0  0  0  0  0  0  0
   55.5000   45.9930   49.6640 C   0  0  0  0  0  3  0  0  0  0  0  0
   58.0620   48.0900   49.7540 N   0  0  0  0  0  0  0  0  0  0  0  0
   57.5040   48.9700   49.6070 H   0  0  0  0  0  0  0  0  0  0  0  0
   59.3180   48.2420   49.6050 C   0  0  0  0  0  0  0  0  0  0  0  0
   60.1040   48.7590   50.4570 N   0  0  0  0  0  0  0  0  0  0  0  0
   61.3400   48.8650   50.2120 C   0  0  0  0  0  3  0  0  0  0  0  0
   61.9320   48.4620   49.0770 C   0  0  0  0  0  0  0  0  0  0  0  0
   61.1230   47.9110   48.1580 C   0  0  0  0  0  3  0  0  0  0  0  0
   59.8140   47.8040   48.4300 C   0  0  0  0  0  3  0  0  0  0  0  0
   63.4200   48.6210   48.8590 C   0  0  0  0  0  2  0  0  0  0  0  0
   63.8130   50.0210   48.9600 N   0  0  0  0  0  0  0  0  0  0  0  0
   63.3420   50.7830   47.8140 C   0  0  0  0  0  2  0  0  0  0  0  0
   63.7310   52.2650   47.9440 C   0  0  0  0  0  2  0  0  0  0  0  0
   65.1750   52.4250   48.0610 N   0  0  0  0  0  0  0  0  0  0  0  0
   65.6510   51.6540   49.2000 C   0  0  0  0  0  2  0  0  0  0  0  0
   65.2560   50.1730   49.0760 C   0  0  0  0  0  2  0  0  0  0  0  0
   65.5300   53.8380   48.1460 C   0  0  0  0  0  2  0  0  0  0  0  0
   64.3230   54.7890   48.0800 C   0  0  0  0  0  1  0  0  0  0  0  0
   57.4690   44.3610   52.1990 C   0  0  0  0  0  0  0  0  0  0  0  0
   58.7390   43.8890   52.1170 C   0  0  0  0  0  3  0  0  0  0  0  0
   59.2990   43.0610   53.0150 C   0  0  0  0  0  0  0  0  0  0  0  0
   58.5600   42.6810   54.0630 C   0  0  0  0  0  0  0  0  0  0  0  0
   60.5450   42.6340   52.8690 F   0  0  0  0  0  0  0  0  0  0  0  0
   58.8550   41.9170   55.0270 N   0  0  0  0  0  0  0  0  0  0  0  0
   57.3040   43.1280   54.1890 C   0  0  0  0  0  0  0  0  0  0  0  0
   57.8280   41.8580   55.7680 C   0  0  0  0  0  0  0  0  0  0  0  0
   56.9130   42.5850   55.2670 N   0  0  0  0  0  0  0  0  0  0  0  0
   57.9010   40.9850   56.9890 C   0  0  0  0  0  1  0  0  0  0  0  0
   56.7640   43.9470   53.2770 C   0  0  0  0  0  3  0  0  0  0  0  0
   55.5610   42.7740   55.8400 C   0  0  0  0  0  3  0  0  0  0  0  0
   55.5050   43.2400   57.3040 C   0  0  0  0  0  1  0  0  0  0  0  0
   54.7140   41.5100   55.6240 C   0  0  0  0  0  1  0  0  0  0  0  0
  2  4  1  0  0  0  0
  3  7  2  0  0  0  0
  3  5  1  0  0  0  0
  4 25  1  0  0  0  0
  5  2  2  0  0  0  0
  6  1  1  0  0  0  0
  6  4  2  0  0  0  0
  7  6  1  0  0  0  0
  8  5  1  0  0  0  0
  9  8  1  0  0  0  0
 10  8  1  0  0  0  0
 10 11  1  0  0  0  0
 12 11  2  0  0  0  0
 13 12  1  0  0  0  0
 14 15  1  0  0  0  0
 14 13  2  0  0  0  0
 15 10  2  0  0  0  0
 16 17  1  0  0  0  0
 16 13  1  0  0  0  0
 17 22  1  0  0  0  0
 18 19  1  0  0  0  0
 18 17  1  0  0  0  0
 19 20  1  0  0  0  0
 20 23  1  0  0  0  0
 20 21  1  0  0  0  0
 22 21  1  0  0  0  0
 24 23  1  0  0  0  0
 25 35  1  0  0  0  0
 26 25  2  0  0  0  0
 26 27  1  0  0  0  0
 27 28  2  0  0  0  0
 28 31  1  0  0  0  0
 28 30  1  0  0  0  0
 29 27  1  0  0  0  0
 30 32  2  0  0  0  0
 31 33  1  0  0  0  0
 32 34  1  0  0  0  0
 33 32  1  0  0  0  0
 33 36  1  0  0  0  0
 35 31  2  0  0  0  0
 36 37  1  0  0  0  0
 38 36  1  0  0  0  0
M  END
>  <MODEL>
6

>  <REMARK>
 VINA RESULT:    -8.787      3.856     11.267
 INTER + INTRA:         -13.258
 INTER:                 -12.109
 INTRA:                  -1.150
 UNBOUND:                -0.876
  7 active torsions:
  status: ('A' for Active; 'I' for Inactive)
    1  A    between atoms: N3_3  and  C15_15 
    2  A    between atoms: N4_4  and  C16_16 
    3  A    between atoms: N5_5  and  C19_19 
    4  A    between atoms: N8_8  and  C31_31 
    5  A    between atoms: N8_8  and  C35_35 
    6  A    between atoms: C15_15  and  C17_17 
    7  A    between atoms: C28_28  and  C34_34 

>  <TORSDO>
F 7

$$$$
all.pdbqt
 OpenBabel04112516173D

 38 42  0  0  0  0  0  0  0  0999 V2000
   56.2790   47.4830   49.3950 F   0  0  0  0  0  0  0  0  0  0  0  0
   59.4620   46.1710   49.8340 N   0  0  0  0  0  0  0  0  0  0  0  0
   59.5580   47.8240   48.3830 N   0  0  0  0  0  0  0  0  0  0  0  0
   58.2080   46.2520   50.0370 C   0  0  0  0  0  0  0  0  0  0  0  0
   60.1330   46.9110   49.0490 C   0  0  0  0  0  0  0  0  0  0  0  0
   57.5730   47.2200   49.3390 C   0  0  0  0  0  0  0  0  0  0  0  0
   58.3150   47.9800   48.5200 C   0  0  0  0  0  3  0  0  0  0  0  0
   61.3900   46.8020   48.8700 N   0  0  0  0  0  0  0  0  0  0  0  0
   61.6500   46.0590   48.1720 H   0  0  0  0  0  0  0  0  0  0  0  0
   62.3880   47.4160   49.3690 C   0  0  0  0  0  0  0  0  0  0  0  0
   62.3960   48.0260   50.4830 N   0  0  0  0  0  0  0  0  0  0  0  0
   63.4420   48.6070   50.8910 C   0  0  0  0  0  3  0  0  0  0  0  0
   64.6060   48.6450   50.2240 C   0  0  0  0  0  0  0  0  0  0  0  0
   64.6250   48.0080   49.0430 C   0  0  0  0  0  3  0  0  0  0  0  0
   63.5090   47.3950   48.6210 C   0  0  0  0  0  3  0  0  0  0  0  0
   65.8160   49.3610   50.7810 C   0  0  0  0  0  2  0  0  0  0  0  0
   65.8050   50.7700   50.4050 N   0  0  0  0  0  0  0  0  0  0  0  0
   64.6210   51.0960   49.6240 C   0  0  0  0  0  2  0  0  0  0  0  0
   64.6000   52.5890   49.2600 C   0  0  0  0  0  2  0  0  0  0  0  0
   65.7870   52.9680   48.5060 N   0  0  0  0  0  0  0  0  0  0  0  0
   66.9730   52.6320   49.2800 C   0  0  0  0  0  2  0  0  0  0  0  0
   66.9930   51.1400   49.6520 C   0  0  0  0  0  2  0  0  0  0  0  0
   65.7330   54.3790   48.1370 C   0  0  0  0  0  2  0  0  0  0  0  0
   64.3140   54.9720   48.1450 C   0  0  0  0  0  1  0  0  0  0  0  0
   57.6460   45.3770   50.9160 C   0  0  0  0  0  0  0  0  0  0  0  0
   58.3790   44.8410   51.9250 C   0  0  0  0  0  3  0  0  0  0  0  0
   57.9020   43.9680   52.8280 C   0  0  0  0  0  0  0  0  0  0  0  0
   56.6180   43.6050   52.7300 C   0  0  0  0  0  0  0  0  0  0  0  0
   58.6770   43.4800   53.7850 F   0  0  0  0  0  0  0  0  0  0  0  0
   55.9460   42.8070   53.4470 N   0  0  0  0  0  0  0  0  0  0  0  0
   55.8540   44.1140   51.7560 C   0  0  0  0  0  0  0  0  0  0  0  0
   54.7740   42.7870   52.9610 C   0  0  0  0  0  0  0  0  0  0  0  0
   54.7270   43.5690   51.9600 N   0  0  0  0  0  0  0  0  0  0  0  0
   53.7660   41.8870   53.6180 C   0  0  0  0  0  1  0  0  0  0  0  0
   56.3540   44.9770   50.8620 C   0  0  0  0  0  3  0  0  0  0  0  0
   53.5300   43.8160   51.1240 C   0  0  0  0  0  3  0  0  0  0  0  0
   53.7440   43.7660   49.6030 C   0  0  0  0  0  1  0  0  0  0  0  0
   52.8490   45.1260   51.5490 C   0  0  0  0  0  1  0  0  0  0  0  0
  2  4  1  0  0  0  0
  3  7  2  0  0  0  0
  3  5  1  0  0  0  0
  4 25  1  0  0  0  0
  5  2  2  0  0  0  0
  6  1  1  0  0  0  0
  6  4  2  0  0  0  0
  7  6  1  0  0  0  0
  8  5  1  0  0  0  0
  8 10  1  0  0  0  0
  9  8  1  0  0  0  0
 10 11  1  0  0  0  0
 11 12  2  0  0  0  0
 13 16  1  0  0  0  0
 13 12  1  0  0  0  0
 14 13  2  0  0  0  0
 15 14  1  0  0  0  0
 15 10  2  0  0  0  0
 17 16  1  0  0  0  0
 18 17  1  0  0  0  0
 19 18  1  0  0  0  0
 20 19  1  0  0  0  0
 20 21  1  0  0  0  0
 21 22  1  0  0  0  0
 22 17  1  0  0  0  0
 23 24  1  0  0  0  0
 23 20  1  0  0  0  0
 25 26  1  0  0  0  0
 26 27  2  0  0  0  0
 27 29  1  0  0  0  0
 28 27  1  0  0  0  0
 28 30  1  0  0  0  0
 31 33  1  0  0  0  0
 31 28  2  0  0  0  0
 32 30  2  0  0  0  0
 32 34  1  0  0  0  0
 33 32  1  0  0  0  0
 35 25  2  0  0  0  0
 35 31  1  0  0  0  0
 36 38  1  0  0  0  0
 36 33  1  0  0  0  0
 37 36  1  0  0  0  0
M  END
>  <MODEL>
7

>  <REMARK>
 VINA RESULT:    -8.778      3.574     10.961
 INTER + INTRA:         -13.247
 INTER:                 -13.105
 INTRA:                  -0.142
 UNBOUND:                -0.876
  7 active torsions:
  status: ('A' for Active; 'I' for Inactive)
    1  A    between atoms: N3_3  and  C15_15 
    2  A    between atoms: N4_4  and  C16_16 
    3  A    between atoms: N5_5  and  C19_19 
    4  A    between atoms: N8_8  and  C31_31 
    5  A    between atoms: N8_8  and  C35_35 
    6  A    between atoms: C15_15  and  C17_17 
    7  A    between atoms: C28_28  and  C34_34 

>  <TORSDO>
F 7

$$$$
all.pdbqt
 OpenBabel04112516173D

 38 42  0  0  0  0  0  0  0  0999 V2000
   65.4440   49.5160   48.7840 F   0  0  0  0  0  0  0  0  0  0  0  0
   62.7490   48.6680   50.7990 N   0  0  0  0  0  0  0  0  0  0  0  0
   61.9970   49.4750   48.8940 N   0  0  0  0  0  0  0  0  0  0  0  0
   63.9830   48.7890   50.5110 C   0  0  0  0  0  0  0  0  0  0  0  0
   61.7790   48.9880   50.0440 C   0  0  0  0  0  0  0  0  0  0  0  0
   64.2400   49.3050   49.2890 C   0  0  0  0  0  0  0  0  0  0  0  0
   63.1910   49.6310   48.5210 C   0  0  0  0  0  3  0  0  0  0  0  0
   60.5530   48.8520   50.3650 N   0  0  0  0  0  0  0  0  0  0  0  0
   60.0380   49.7670   50.4450 H   0  0  0  0  0  0  0  0  0  0  0  0
   59.8330   47.8290   50.6050 C   0  0  0  0  0  0  0  0  0  0  0  0
   60.2200   46.7810   51.2080 N   0  0  0  0  0  0  0  0  0  0  0  0
   59.4240   45.8160   51.3980 C   0  0  0  0  0  3  0  0  0  0  0  0
   58.1430   45.7930   50.9990 C   0  0  0  0  0  0  0  0  0  0  0  0
   57.7080   46.8880   50.3580 C   0  0  0  0  0  3  0  0  0  0  0  0
   58.5610   47.9050   50.1640 C   0  0  0  0  0  3  0  0  0  0  0  0
   57.2520   44.5990   51.2650 C   0  0  0  0  0  2  0  0  0  0  0  0
   56.9720   44.4670   52.6900 N   0  0  0  0  0  0  0  0  0  0  0  0
   57.1100   43.0860   53.1270 C   0  0  0  0  0  2  0  0  0  0  0  0
   56.8470   42.9600   54.6360 C   0  0  0  0  0  2  0  0  0  0  0  0
   55.5150   43.4380   54.9820 N   0  0  0  0  0  0  0  0  0  0  0  0
   55.3690   44.8160   54.5370 C   0  0  0  0  0  2  0  0  0  0  0  0
   55.6400   44.9460   53.0280 C   0  0  0  0  0  2  0  0  0  0  0  0
   55.2670   43.2770   56.4120 C   0  0  0  0  0  2  0  0  0  0  0  0
   54.8300   44.5710   57.1190 C   0  0  0  0  0  1  0  0  0  0  0  0
   64.8970   48.3950   51.4410 C   0  0  0  0  0  0  0  0  0  0  0  0
   65.7310   49.2960   52.0180 C   0  0  0  0  0  3  0  0  0  0  0  0
   66.6620   48.9880   52.9360 C   0  0  0  0  0  0  0  0  0  0  0  0
   66.7720   47.7090   53.3130 C   0  0  0  0  0  0  0  0  0  0  0  0
   67.4480   49.9200   53.4550 F   0  0  0  0  0  0  0  0  0  0  0  0
   67.5610   47.1750   54.1450 N   0  0  0  0  0  0  0  0  0  0  0  0
   65.9640   46.7860   52.7760 C   0  0  0  0  0  0  0  0  0  0  0  0
   67.2860   45.9370   54.1590 C   0  0  0  0  0  0  0  0  0  0  0  0
   66.3330   45.7150   53.3470 N   0  0  0  0  0  0  0  0  0  0  0  0
   68.1040   45.0540   55.0590 C   0  0  0  0  0  1  0  0  0  0  0  0
   65.0480   47.1150   51.8560 C   0  0  0  0  0  3  0  0  0  0  0  0
   65.7300   44.3890   53.0800 C   0  0  0  0  0  3  0  0  0  0  0  0
   64.8690   43.7970   54.2080 C   0  0  0  0  0  1  0  0  0  0  0  0
   66.8120   43.3980   52.6240 C   0  0  0  0  0  1  0  0  0  0  0  0
  1  6  1  0  0  0  0
  3  5  1  0  0  0  0
  4  2  1  0  0  0  0
  4 25  1  0  0  0  0
  5  8  1  0  0  0  0
  5  2  2  0  0  0  0
  6  4  2  0  0  0  0
  7  3  2  0  0  0  0
  7  6  1  0  0  0  0
  8  9  1  0  0  0  0
  8 10  1  0  0  0  0
 10 11  1  0  0  0  0
 11 12  2  0  0  0  0
 13 16  1  0  0  0  0
 13 12  1  0  0  0  0
 14 13  2  0  0  0  0
 15 14  1  0  0  0  0
 15 10  2  0  0  0  0
 16 17  1  0  0  0  0
 17 22  1  0  0  0  0
 17 18  1  0  0  0  0
 18 19  1  0  0  0  0
 19 20  1  0  0  0  0
 20 23  1  0  0  0  0
 21 20  1  0  0  0  0
 22 21  1  0  0  0  0
 23 24  1  0  0  0  0
 25 35  2  0  0  0  0
 25 26  1  0  0  0  0
 26 27  2  0  0  0  0
 27 28  1  0  0  0  0
 27 29  1  0  0  0  0
 28 30  1  0  0  0  0
 30 32  2  0  0  0  0
 31 28  2  0  0  0  0
 31 33  1  0  0  0  0
 32 34  1  0  0  0  0
 33 32  1  0  0  0  0
 35 31  1  0  0  0  0
 36 33  1  0  0  0  0
 36 37  1  0  0  0  0
 38 36  1  0  0  0  0
M  END
>  <MODEL>
8

>  <REMARK>
 VINA RESULT:    -8.763      2.317      5.395
 INTER + INTRA:         -13.225
 INTER:                 -12.213
 INTRA:                  -1.012
 UNBOUND:                -0.876
  7 active torsions:
  status: ('A' for Active; 'I' for Inactive)
    1  A    between atoms: N3_3  and  C15_15 
    2  A    between atoms: N4_4  and  C16_16 
    3  A    between atoms: N5_5  and  C19_19 
    4  A    between atoms: N8_8  and  C31_31 
    5  A    between atoms: N8_8  and  C35_35 
    6  A    between atoms: C15_15  and  C17_17 
    7  A    between atoms: C28_28  and  C34_34 

>  <TORSDO>
F 7

$$$$
all.pdbqt
 OpenBabel04112516173D

 38 42  0  0  0  0  0  0  0  0999 V2000
   65.6780   50.9800   49.5930 F   0  0  0  0  0  0  0  0  0  0  0  0
   63.3830   48.3980   49.9250 N   0  0  0  0  0  0  0  0  0  0  0  0
   62.7310   49.7380   48.3040 N   0  0  0  0  0  0  0  0  0  0  0  0
   64.4370   49.0510   50.2140 C   0  0  0  0  0  0  0  0  0  0  0  0
   62.5500   48.7040   49.0150 C   0  0  0  0  0  0  0  0  0  0  0  0
   64.6510   50.1570   49.4670 C   0  0  0  0  0  0  0  0  0  0  0  0
   63.7500   50.4480   48.5180 C   0  0  0  0  0  3  0  0  0  0  0  0
   61.5040   48.0250   48.7520 N   0  0  0  0  0  0  0  0  0  0  0  0
   61.1300   48.1940   47.7830 H   0  0  0  0  0  0  0  0  0  0  0  0
   60.8290   47.1840   49.4290 C   0  0  0  0  0  0  0  0  0  0  0  0
   60.9810   45.9240   49.4030 N   0  0  0  0  0  0  0  0  0  0  0  0
   60.2570   45.1720   50.1160 C   0  0  0  0  0  3  0  0  0  0  0  0
   59.2900   45.6020   50.9420 C   0  0  0  0  0  0  0  0  0  0  0  0
   59.1070   46.9310   50.9890 C   0  0  0  0  0  3  0  0  0  0  0  0
   59.8820   47.7170   50.2280 C   0  0  0  0  0  3  0  0  0  0  0  0
   58.4650   44.6380   51.7660 C   0  0  0  0  0  2  0  0  0  0  0  0
   57.0510   44.9910   51.7190 N   0  0  0  0  0  0  0  0  0  0  0  0
   56.3220   44.3880   52.8240 C   0  0  0  0  0  2  0  0  0  0  0  0
   54.8400   44.7930   52.7880 C   0  0  0  0  0  2  0  0  0  0  0  0
   54.2140   44.3990   51.5320 N   0  0  0  0  0  0  0  0  0  0  0  0
   54.9480   44.9920   50.4250 C   0  0  0  0  0  2  0  0  0  0  0  0
   56.4340   44.5950   50.4630 C   0  0  0  0  0  2  0  0  0  0  0  0
   52.7980   44.7570   51.5290 C   0  0  0  0  0  2  0  0  0  0  0  0
   52.3340   45.4490   50.2370 C   0  0  0  0  0  1  0  0  0  0  0  0
   65.2230   48.5800   51.2220 C   0  0  0  0  0  0  0  0  0  0  0  0
   66.0700   49.4080   51.8840 C   0  0  0  0  0  3  0  0  0  0  0  0
   66.8810   49.0210   52.8830 C   0  0  0  0  0  0  0  0  0  0  0  0
   66.8490   47.7360   53.2540 C   0  0  0  0  0  0  0  0  0  0  0  0
   67.6880   49.8840   53.4830 F   0  0  0  0  0  0  0  0  0  0  0  0
   67.5090   47.1370   54.1520 N   0  0  0  0  0  0  0  0  0  0  0  0
   66.0230   46.8850   52.6350 C   0  0  0  0  0  0  0  0  0  0  0  0
   67.1330   45.9260   54.1270 C   0  0  0  0  0  0  0  0  0  0  0  0
   66.2470   45.7850   53.2260 N   0  0  0  0  0  0  0  0  0  0  0  0
   67.7870   44.9760   55.0900 C   0  0  0  0  0  1  0  0  0  0  0  0
   65.2290   47.2910   51.6350 C   0  0  0  0  0  3  0  0  0  0  0  0
   65.5650   44.5150   52.8890 C   0  0  0  0  0  3  0  0  0  0  0  0
   64.5480   43.9980   53.9200 C   0  0  0  0  0  1  0  0  0  0  0  0
   66.6000   43.4360   52.5360 C   0  0  0  0  0  1  0  0  0  0  0  0
  2  4  1  0  0  0  0
  3  7  2  0  0  0  0
  3  5  1  0  0  0  0
  4 25  1  0  0  0  0
  5  2  2  0  0  0  0
  6  1  1  0  0  0  0
  6  4  2  0  0  0  0
  7  6  1  0  0  0  0
  8  5  1  0  0  0  0
  8 10  1  0  0  0  0
  9  8  1  0  0  0  0
 10 15  1  0  0  0  0
 11 10  2  0  0  0  0
 11 12  1  0  0  0  0
 12 13  2  0  0  0  0
 13 14  1  0  0  0  0
 13 16  1  0  0  0  0
 15 14  2  0  0  0  0
 17 16  1  0  0  0  0
 17 18  1  0  0  0  0
 19 18  1  0  0  0  0
 20 19  1  0  0  0  0
 21 22  1  0  0  0  0
 21 20  1  0  0  0  0
 22 17  1  0  0  0  0
 23 20  1  0  0  0  0
 24 23  1  0  0  0  0
 25 35  2  0  0  0  0
 25 26  1  0  0  0  0
 26 27  2  0  0  0  0
 27 28  1  0  0  0  0
 27 29  1  0  0  0  0
 28 30  1  0  0  0  0
 31 33  1  0  0  0  0
 31 28  2  0  0  0  0
 32 30  2  0  0  0  0
 32 34  1  0  0  0  0
 33 32  1  0  0  0  0
 35 31  1  0  0  0  0
 36 33  1  0  0  0  0
 36 37  1  0  0  0  0
 38 36  1  0  0  0  0
M  END
>  <MODEL>
9

>  <REMARK>
 VINA RESULT:    -8.733      2.154      5.387
 INTER + INTRA:         -13.183
 INTER:                 -12.254
 INTRA:                  -0.929
 UNBOUND:                -0.876
  7 active torsions:
  status: ('A' for Active; 'I' for Inactive)
    1  A    between atoms: N3_3  and  C15_15 
    2  A    between atoms: N4_4  and  C16_16 
    3  A    between atoms: N5_5  and  C19_19 
    4  A    between atoms: N8_8  and  C31_31 
    5  A    between atoms: N8_8  and  C35_35 
    6  A    between atoms: C15_15  and  C17_17 
    7  A    between atoms: C28_28  and  C34_34 

>  <TORSDO>
F 7

$$$$
all.pdbqt
 OpenBabel04112516173D

 38 42  0  0  0  0  0  0  0  0999 V2000
   65.3070   49.2870   53.3260 F   0  0  0  0  0  0  0  0  0  0  0  0
   67.8270   48.0950   51.2600 N   0  0  0  0  0  0  0  0  0  0  0  0
   67.6420   46.7700   53.0080 N   0  0  0  0  0  0  0  0  0  0  0  0
   66.9020   48.8970   51.6090 C   0  0  0  0  0  0  0  0  0  0  0  0
   68.2010   47.0700   51.9100 C   0  0  0  0  0  0  0  0  0  0  0  0
   66.2900   48.5960   52.7760 C   0  0  0  0  0  0  0  0  0  0  0  0
   66.7120   47.5070   53.4340 C   0  0  0  0  0  3  0  0  0  0  0  0
   69.1320   46.2870   51.5290 N   0  0  0  0  0  0  0  0  0  0  0  0
   68.8890   45.7380   50.6650 H   0  0  0  0  0  0  0  0  0  0  0  0
   70.2940   46.0430   51.9890 C   0  0  0  0  0  0  0  0  0  0  0  0
   70.5820   45.1220   52.8140 N   0  0  0  0  0  0  0  0  0  0  0  0
   71.7720   44.9610   53.2110 C   0  0  0  0  0  3  0  0  0  0  0  0
   72.8150   45.7120   52.8250 C   0  0  0  0  0  0  0  0  0  0  0  0
   72.5390   46.6950   51.9530 C   0  0  0  0  0  3  0  0  0  0  0  0
   71.2730   46.8540   51.5390 C   0  0  0  0  0  3  0  0  0  0  0  0
   74.2120   45.4560   53.3440 C   0  0  0  0  0  2  0  0  0  0  0  0
   74.2580   45.5860   54.7960 N   0  0  0  0  0  0  0  0  0  0  0  0
   74.0580   46.9670   55.2070 C   0  0  0  0  0  2  0  0  0  0  0  0
   74.0750   47.0910   56.7390 C   0  0  0  0  0  2  0  0  0  0  0  0
   75.3310   46.6060   57.2950 N   0  0  0  0  0  0  0  0  0  0  0  0
   75.5400   45.2280   56.8770 C   0  0  0  0  0  2  0  0  0  0  0  0
   75.5160   45.1000   55.3440 C   0  0  0  0  0  2  0  0  0  0  0  0
   75.3450   46.7650   58.7470 C   0  0  0  0  0  2  0  0  0  0  0  0
   74.6850   48.0630   59.2380 C   0  0  0  0  0  1  0  0  0  0  0  0
   66.6280   49.9510   50.7900 C   0  0  0  0  0  0  0  0  0  0  0  0
   67.6180   50.7850   50.3800 C   0  0  0  0  0  3  0  0  0  0  0  0
   67.4300   51.8480   49.5810 C   0  0  0  0  0  0  0  0  0  0  0  0
   66.1870   52.0990   49.1540 C   0  0  0  0  0  0  0  0  0  0  0  0
   68.4430   52.6240   49.2240 F   0  0  0  0  0  0  0  0  0  0  0  0
   65.7600   53.0270   48.4080 N   0  0  0  0  0  0  0  0  0  0  0  0
   65.1810   51.2990   49.5270 C   0  0  0  0  0  0  0  0  0  0  0  0
   64.5100   52.8490   48.2900 C   0  0  0  0  0  0  0  0  0  0  0  0
   64.1750   51.8170   48.9540 N   0  0  0  0  0  0  0  0  0  0  0  0
   63.7410   53.8400   47.4630 C   0  0  0  0  0  1  0  0  0  0  0  0
   65.3910   50.2490   50.3320 C   0  0  0  0  0  3  0  0  0  0  0  0
   62.7980   51.2830   49.0660 C   0  0  0  0  0  3  0  0  0  0  0  0
   62.1380   51.3980   50.4490 C   0  0  0  0  0  1  0  0  0  0  0  0
   62.7460   49.8400   48.5400 C   0  0  0  0  0  1  0  0  0  0  0  0
  2  4  1  0  0  0  0
  2  5  2  0  0  0  0
  3  7  2  0  0  0  0
  4  6  2  0  0  0  0
  5  3  1  0  0  0  0
  6  1  1  0  0  0  0
  6  7  1  0  0  0  0
  8  5  1  0  0  0  0
  8 10  1  0  0  0  0
  9  8  1  0  0  0  0
 10 11  1  0  0  0  0
 11 12  2  0  0  0  0
 13 12  1  0  0  0  0
 13 16  1  0  0  0  0
 14 13  2  0  0  0  0
 15 14  1  0  0  0  0
 15 10  2  0  0  0  0
 16 17  1  0  0  0  0
 17 18  1  0  0  0  0
 17 22  1  0  0  0  0
 18 19  1  0  0  0  0
 19 20  1  0  0  0  0
 20 23  1  0  0  0  0
 21 20  1  0  0  0  0
 22 21  1  0  0  0  0
 23 24  1  0  0  0  0
 25  4  1  0  0  0  0
 26 25  1  0  0  0  0
 27 26  2  0  0  0  0
 28 31  2  0  0  0  0
 28 27  1  0  0  0  0
 29 27  1  0  0  0  0
 30 28  1  0  0  0  0
 31 35  1  0  0  0  0
 32 30  2  0  0  0  0
 32 33  1  0  0  0  0
 33 36  1  0  0  0  0
 33 31  1  0  0  0  0
 34 32  1  0  0  0  0
 35 25  2  0  0  0  0
 36 37  1  0  0  0  0
 38 36  1  0  0  0  0
M  END
>  <MODEL>
10

>  <REMARK>
 VINA RESULT:    -8.691      5.338      9.927
 INTER + INTRA:         -13.124
 INTER:                 -12.128
 INTRA:                  -0.997
 UNBOUND:                -0.876
  7 active torsions:
  status: ('A' for Active; 'I' for Inactive)
    1  A    between atoms: N3_3  and  C15_15 
    2  A    between atoms: N4_4  and  C16_16 
    3  A    between atoms: N5_5  and  C19_19 
    4  A    between atoms: N8_8  and  C31_31 
    5  A    between atoms: N8_8  and  C35_35 
    6  A    between atoms: C15_15  and  C17_17 
    7  A    between atoms: C28_28  and  C34_34 

>  <TORSDO>
F 7

$$$$
all.pdbqt
 OpenBabel04112516173D

 38 42  0  0  0  0  0  0  0  0999 V2000
   65.1800   52.1860   47.9940 F   0  0  0  0  0  0  0  0  0  0  0  0
   65.8430   50.1870   50.7520 N   0  0  0  0  0  0  0  0  0  0  0  0
   67.7280   51.0670   50.0300 N   0  0  0  0  0  0  0  0  0  0  0  0
   65.1030   50.7330   49.8720 C   0  0  0  0  0  0  0  0  0  0  0  0
   67.1020   50.3310   50.8510 C   0  0  0  0  0  0  0  0  0  0  0  0
   65.7480   51.5240   48.9870 C   0  0  0  0  0  0  0  0  0  0  0  0
   67.0760   51.6500   49.1220 C   0  0  0  0  0  3  0  0  0  0  0  0
   67.8130   49.7700   51.7470 N   0  0  0  0  0  0  0  0  0  0  0  0
   68.5880   50.3830   52.1100 H   0  0  0  0  0  0  0  0  0  0  0  0
   67.7680   48.6170   52.2870 C   0  0  0  0  0  0  0  0  0  0  0  0
   67.1240   48.3220   53.3400 N   0  0  0  0  0  0  0  0  0  0  0  0
   67.1440   47.1430   53.7980 C   0  0  0  0  0  3  0  0  0  0  0  0
   67.8160   46.1200   53.2480 C   0  0  0  0  0  0  0  0  0  0  0  0
   68.5060   46.4050   52.1320 C   0  0  0  0  0  3  0  0  0  0  0  0
   68.4770   47.6590   51.6570 C   0  0  0  0  0  3  0  0  0  0  0  0
   67.7880   44.7350   53.8550 C   0  0  0  0  0  2  0  0  0  0  0  0
   69.1150   44.3420   54.3160 N   0  0  0  0  0  0  0  0  0  0  0  0
   69.2040   42.9010   54.4940 C   0  0  0  0  0  2  0  0  0  0  0  0
   70.6150   42.4920   54.9470 C   0  0  0  0  0  2  0  0  0  0  0  0
   70.9820   43.1490   56.1940 N   0  0  0  0  0  0  0  0  0  0  0  0
   70.8830   44.5910   56.0230 C   0  0  0  0  0  2  0  0  0  0  0  0
   69.4740   45.0030   55.5620 C   0  0  0  0  0  2  0  0  0  0  0  0
   72.3080   42.7210   56.6300 C   0  0  0  0  0  2  0  0  0  0  0  0
   73.4460   43.6420   56.1580 C   0  0  0  0  0  1  0  0  0  0  0  0
   63.7670   50.4700   49.9120 C   0  0  0  0  0  0  0  0  0  0  0  0
   62.8950   51.3860   50.4040 C   0  0  0  0  0  3  0  0  0  0  0  0
   61.5660   51.2020   50.4840 C   0  0  0  0  0  0  0  0  0  0  0  0
   61.0670   50.0410   50.0430 C   0  0  0  0  0  0  0  0  0  0  0  0
   60.7730   52.1390   50.9810 F   0  0  0  0  0  0  0  0  0  0  0  0
   59.8700   49.6350   50.0150 N   0  0  0  0  0  0  0  0  0  0  0  0
   61.8890   49.1110   49.5420 C   0  0  0  0  0  0  0  0  0  0  0  0
   59.8970   48.4710   49.5110 C   0  0  0  0  0  0  0  0  0  0  0  0
   61.0990   48.1690   49.2290 N   0  0  0  0  0  0  0  0  0  0  0  0
   58.5900   47.7390   49.3840 C   0  0  0  0  0  1  0  0  0  0  0  0
   63.2120   49.3140   49.4800 C   0  0  0  0  0  3  0  0  0  0  0  0
   61.5400   46.8910   48.6270 C   0  0  0  0  0  3  0  0  0  0  0  0
   61.0990   46.6370   47.1760 C   0  0  0  0  0  1  0  0  0  0  0  0
   61.1570   45.7160   49.5400 C   0  0  0  0  0  1  0  0  0  0  0  0
  1  6  1  0  0  0  0
  2  5  2  0  0  0  0
  3  5  1  0  0  0  0
  4 25  1  0  0  0  0
  4  2  1  0  0  0  0
  5  8  1  0  0  0  0
  6  7  1  0  0  0  0
  6  4  2  0  0  0  0
  7  3  2  0  0  0  0
  8  9  1  0  0  0  0
  8 10  1  0  0  0  0
 10 11  1  0  0  0  0
 11 12  2  0  0  0  0
 13 12  1  0  0  0  0
 13 16  1  0  0  0  0
 14 13  2  0  0  0  0
 15 14  1  0  0  0  0
 15 10  2  0  0  0  0
 16 17  1  0  0  0  0
 17 18  1  0  0  0  0
 17 22  1  0  0  0  0
 18 19  1  0  0  0  0
 19 20  1  0  0  0  0
 20 23  1  0  0  0  0
 21 20  1  0  0  0  0
 22 21  1  0  0  0  0
 24 23  1  0  0  0  0
 25 26  1  0  0  0  0
 26 27  2  0  0  0  0
 27 29  1  0  0  0  0
 28 27  1  0  0  0  0
 30 28  1  0  0  0  0
 31 28  2  0  0  0  0
 32 30  2  0  0  0  0
 33 32  1  0  0  0  0
 33 31  1  0  0  0  0
 34 32  1  0  0  0  0
 35 31  1  0  0  0  0
 35 25  2  0  0  0  0
 36 33  1  0  0  0  0
 36 38  1  0  0  0  0
 37 36  1  0  0  0  0
M  END
>  <MODEL>
11

>  <REMARK>
 VINA RESULT:    -8.582      3.651      8.389
 INTER + INTRA:         -12.971
 INTER:                 -11.730
 INTRA:                  -1.241
 UNBOUND:                -0.876
  7 active torsions:
  status: ('A' for Active; 'I' for Inactive)
    1  A    between atoms: N3_3  and  C15_15 
    2  A    between atoms: N4_4  and  C16_16 
    3  A    between atoms: N5_5  and  C19_19 
    4  A    between atoms: N8_8  and  C31_31 
    5  A    between atoms: N8_8  and  C35_35 
    6  A    between atoms: C15_15  and  C17_17 
    7  A    between atoms: C28_28  and  C34_34 

>  <TORSDO>
F 7

$$$$
all.pdbqt
 OpenBabel04112516173D

 38 42  0  0  0  0  0  0  0  0999 V2000
   60.5790   48.9670   48.1100 F   0  0  0  0  0  0  0  0  0  0  0  0
   62.2310   46.5670   49.9950 N   0  0  0  0  0  0  0  0  0  0  0  0
   60.2350   45.8110   49.4550 N   0  0  0  0  0  0  0  0  0  0  0  0
   62.1060   47.6880   49.4060 C   0  0  0  0  0  0  0  0  0  0  0  0
   61.3520   45.6500   50.0340 C   0  0  0  0  0  0  0  0  0  0  0  0
   60.9230   47.8810   48.7810 C   0  0  0  0  0  0  0  0  0  0  0  0
   60.0200   46.8920   48.8450 C   0  0  0  0  0  3  0  0  0  0  0  0
   61.5110   44.5370   50.6330 N   0  0  0  0  0  0  0  0  0  0  0  0
   60.8730   43.7780   50.2810 H   0  0  0  0  0  0  0  0  0  0  0  0
   62.2910   44.1660   51.5690 C   0  0  0  0  0  0  0  0  0  0  0  0
   63.4010   43.5710   51.4110 N   0  0  0  0  0  0  0  0  0  0  0  0
   64.1040   43.2430   52.4100 C   0  0  0  0  0  3  0  0  0  0  0  0
   63.7700   43.4750   53.6890 C   0  0  0  0  0  0  0  0  0  0  0  0
   62.6000   44.1020   53.8850 C   0  0  0  0  0  3  0  0  0  0  0  0
   61.8650   44.4450   52.8170 C   0  0  0  0  0  3  0  0  0  0  0  0
   64.6670   43.0520   54.8310 C   0  0  0  0  0  2  0  0  0  0  0  0
   66.0660   43.3290   54.5240 N   0  0  0  0  0  0  0  0  0  0  0  0
   66.9510   42.6910   55.4860 C   0  0  0  0  0  2  0  0  0  0  0  0
   68.4240   42.9580   55.1350 C   0  0  0  0  0  2  0  0  0  0  0  0
   68.7090   44.3870   55.1000 N   0  0  0  0  0  0  0  0  0  0  0  0
   67.8170   45.0290   54.1470 C   0  0  0  0  0  2  0  0  0  0  0  0
   66.3420   44.7570   54.4910 C   0  0  0  0  0  2  0  0  0  0  0  0
   70.1190   44.6220   54.8030 C   0  0  0  0  0  2  0  0  0  0  0  0
   70.8960   45.2840   55.9530 C   0  0  0  0  0  1  0  0  0  0  0  0
   63.1520   48.5590   49.4640 C   0  0  0  0  0  0  0  0  0  0  0  0
   64.2240   48.3030   50.2560 C   0  0  0  0  0  3  0  0  0  0  0  0
   65.2900   49.1120   50.3740 C   0  0  0  0  0  0  0  0  0  0  0  0
   65.2990   50.2430   49.6600 C   0  0  0  0  0  0  0  0  0  0  0  0
   66.3010   48.8010   51.1710 F   0  0  0  0  0  0  0  0  0  0  0  0
   66.1730   51.1560   49.6020 N   0  0  0  0  0  0  0  0  0  0  0  0
   64.2670   50.5340   48.8590 C   0  0  0  0  0  0  0  0  0  0  0  0
   65.7330   52.0260   48.7900 C   0  0  0  0  0  0  0  0  0  0  0  0
   64.6030   51.6460   48.3490 N   0  0  0  0  0  0  0  0  0  0  0  0
   66.5780   53.2460   48.5530 C   0  0  0  0  0  1  0  0  0  0  0  0
   63.2100   49.7160   48.7640 C   0  0  0  0  0  3  0  0  0  0  0  0
   63.7680   52.3930   47.3810 C   0  0  0  0  0  3  0  0  0  0  0  0
   64.1840   52.2860   45.9040 C   0  0  0  0  0  1  0  0  0  0  0  0
   63.6350   53.8600   47.8180 C   0  0  0  0  0  1  0  0  0  0  0  0
  1  6  1  0  0  0  0
  2  5  2  0  0  0  0
  3  5  1  0  0  0  0
  4 25  1  0  0  0  0
  4  2  1  0  0  0  0
  5  8  1  0  0  0  0
  6  7  1  0  0  0  0
  6  4  2  0  0  0  0
  7  3  2  0  0  0  0
  8 10  1  0  0  0  0
  9  8  1  0  0  0  0
 10 15  1  0  0  0  0
 11 10  2  0  0  0  0
 11 12  1  0  0  0  0
 12 13  2  0  0  0  0
 13 14  1  0  0  0  0
 13 16  1  0  0  0  0
 15 14  2  0  0  0  0
 17 16  1  0  0  0  0
 17 18  1  0  0  0  0
 19 18  1  0  0  0  0
 20 19  1  0  0  0  0
 21 22  1  0  0  0  0
 21 20  1  0  0  0  0
 22 17  1  0  0  0  0
 23 20  1  0  0  0  0
 23 24  1  0  0  0  0
 25 26  1  0  0  0  0
 26 27  2  0  0  0  0
 27 29  1  0  0  0  0
 28 27  1  0  0  0  0
 30 28  1  0  0  0  0
 31 28  2  0  0  0  0
 32 30  2  0  0  0  0
 33 32  1  0  0  0  0
 33 31  1  0  0  0  0
 34 32  1  0  0  0  0
 35 31  1  0  0  0  0
 35 25  2  0  0  0  0
 36 38  1  0  0  0  0
 36 33  1  0  0  0  0
 37 36  1  0  0  0  0
M  END
>  <MODEL>
12

>  <REMARK>
 VINA RESULT:    -8.534      3.066      6.699
 INTER + INTRA:         -12.902
 INTER:                 -12.137
 INTRA:                  -0.765
 UNBOUND:                -0.876
  7 active torsions:
  status: ('A' for Active; 'I' for Inactive)
    1  A    between atoms: N3_3  and  C15_15 
    2  A    between atoms: N4_4  and  C16_16 
    3  A    between atoms: N5_5  and  C19_19 
    4  A    between atoms: N8_8  and  C31_31 
    5  A    between atoms: N8_8  and  C35_35 
    6  A    between atoms: C15_15  and  C17_17 
    7  A    between atoms: C28_28  and  C34_34 

>  <TORSDO>
F 7

$$$$
all.pdbqt
 OpenBabel04112516173D

 38 42  0  0  0  0  0  0  0  0999 V2000
   60.8920   48.8440   48.1300 F   0  0  0  0  0  0  0  0  0  0  0  0
   62.6450   46.5990   50.1110 N   0  0  0  0  0  0  0  0  0  0  0  0
   60.7100   45.7090   49.5540 N   0  0  0  0  0  0  0  0  0  0  0  0
   62.4650   47.6950   49.4900 C   0  0  0  0  0  0  0  0  0  0  0  0
   61.8230   45.6320   50.1580 C   0  0  0  0  0  0  0  0  0  0  0  0
   61.2870   47.7990   48.8370 C   0  0  0  0  0  0  0  0  0  0  0  0
   60.4440   46.7590   48.9100 C   0  0  0  0  0  3  0  0  0  0  0  0
   62.0360   44.5460   50.7900 N   0  0  0  0  0  0  0  0  0  0  0  0
   63.0390   44.2290   50.7480 H   0  0  0  0  0  0  0  0  0  0  0  0
   61.2760   43.7760   51.4620 C   0  0  0  0  0  0  0  0  0  0  0  0
   60.5800   42.8280   50.9830 N   0  0  0  0  0  0  0  0  0  0  0  0
   59.8540   42.1180   51.7370 C   0  0  0  0  0  3  0  0  0  0  0  0
   59.7430   42.2800   53.0650 C   0  0  0  0  0  0  0  0  0  0  0  0
   60.4680   43.2760   53.5970 C   0  0  0  0  0  3  0  0  0  0  0  0
   61.2340   44.0210   52.7860 C   0  0  0  0  0  3  0  0  0  0  0  0
   58.8540   41.3860   53.9010 C   0  0  0  0  0  2  0  0  0  0  0  0
   58.0130   42.1760   54.7920 N   0  0  0  0  0  0  0  0  0  0  0  0
   57.5050   41.3670   55.8900 C   0  0  0  0  0  2  0  0  0  0  0  0
   56.6480   42.2150   56.8440 C   0  0  0  0  0  2  0  0  0  0  0  0
   55.5260   42.8270   56.1440 N   0  0  0  0  0  0  0  0  0  0  0  0
   56.0300   43.6280   55.0390 C   0  0  0  0  0  2  0  0  0  0  0  0
   56.8950   42.7840   54.0870 C   0  0  0  0  0  2  0  0  0  0  0  0
   54.7020   43.5980   57.0710 C   0  0  0  0  0  2  0  0  0  0  0  0
   54.7290   45.1140   56.8170 C   0  0  0  0  0  1  0  0  0  0  0  0
   63.4550   48.6290   49.5440 C   0  0  0  0  0  0  0  0  0  0  0  0
   64.5140   48.4690   50.3790 C   0  0  0  0  0  3  0  0  0  0  0  0
   65.5260   49.3460   50.4960 C   0  0  0  0  0  0  0  0  0  0  0  0
   65.4920   50.4460   49.7360 C   0  0  0  0  0  0  0  0  0  0  0  0
   66.5260   49.1280   51.3370 F   0  0  0  0  0  0  0  0  0  0  0  0
   66.3120   51.4070   49.6680 N   0  0  0  0  0  0  0  0  0  0  0  0
   64.4720   50.6420   48.8920 C   0  0  0  0  0  0  0  0  0  0  0  0
   65.8490   52.2150   48.8070 C   0  0  0  0  0  0  0  0  0  0  0  0
   64.7580   51.7510   48.3480 N   0  0  0  0  0  0  0  0  0  0  0  0
   66.6270   53.4740   48.5470 C   0  0  0  0  0  1  0  0  0  0  0  0
   63.4690   49.7580   48.7990 C   0  0  0  0  0  3  0  0  0  0  0  0
   63.9140   52.4080   47.3230 C   0  0  0  0  0  3  0  0  0  0  0  0
   64.4170   52.3180   45.8730 C   0  0  0  0  0  1  0  0  0  0  0  0
   63.6290   53.8620   47.7270 C   0  0  0  0  0  1  0  0  0  0  0  0
  1  6  1  0  0  0  0
  2  5  2  0  0  0  0
  3  5  1  0  0  0  0
  4 25  1  0  0  0  0
  4  2  1  0  0  0  0
  5  8  1  0  0  0  0
  6  7  1  0  0  0  0
  6  4  2  0  0  0  0
  7  3  2  0  0  0  0
  8 10  1  0  0  0  0
  9  8  1  0  0  0  0
 10 15  1  0  0  0  0
 11 10  2  0  0  0  0
 11 12  1  0  0  0  0
 12 13  2  0  0  0  0
 13 14  1  0  0  0  0
 13 16  1  0  0  0  0
 15 14  2  0  0  0  0
 16 17  1  0  0  0  0
 17 18  1  0  0  0  0
 18 19  1  0  0  0  0
 20 19  1  0  0  0  0
 20 23  1  0  0  0  0
 21 20  1  0  0  0  0
 22 17  1  0  0  0  0
 22 21  1  0  0  0  0
 24 23  1  0  0  0  0
 25 26  1  0  0  0  0
 26 27  2  0  0  0  0
 27 29  1  0  0  0  0
 28 27  1  0  0  0  0
 30 28  1  0  0  0  0
 31 28  2  0  0  0  0
 32 30  2  0  0  0  0
 33 32  1  0  0  0  0
 33 31  1  0  0  0  0
 34 32  1  0  0  0  0
 35 31  1  0  0  0  0
 35 25  2  0  0  0  0
 36 38  1  0  0  0  0
 36 33  1  0  0  0  0
 37 36  1  0  0  0  0
M  END
>  <MODEL>
13

>  <REMARK>
 VINA RESULT:    -8.512      2.345      4.018
 INTER + INTRA:         -12.871
 INTER:                 -12.242
 INTRA:                  -0.629
 UNBOUND:                -0.876
  7 active torsions:
  status: ('A' for Active; 'I' for Inactive)
    1  A    between atoms: N3_3  and  C15_15 
    2  A    between atoms: N4_4  and  C16_16 
    3  A    between atoms: N5_5  and  C19_19 
    4  A    between atoms: N8_8  and  C31_31 
    5  A    between atoms: N8_8  and  C35_35 
    6  A    between atoms: C15_15  and  C17_17 
    7  A    between atoms: C28_28  and  C34_34 

>  <TORSDO>
F 7

$$$$
all.pdbqt
 OpenBabel04112516173D

 38 42  0  0  0  0  0  0  0  0999 V2000
   56.1820   47.6820   49.0590 F   0  0  0  0  0  0  0  0  0  0  0  0
   58.7740   46.1560   50.7910 N   0  0  0  0  0  0  0  0  0  0  0  0
   59.5530   47.9310   49.7450 N   0  0  0  0  0  0  0  0  0  0  0  0
   57.5730   46.2890   50.3900 C   0  0  0  0  0  0  0  0  0  0  0  0
   59.7400   46.9280   50.4980 C   0  0  0  0  0  0  0  0  0  0  0  0
   57.3490   47.3520   49.5870 C   0  0  0  0  0  0  0  0  0  0  0  0
   58.3930   48.1430   49.2990 C   0  0  0  0  0  3  0  0  0  0  0  0
   60.9320   46.7650   50.9180 N   0  0  0  0  0  0  0  0  0  0  0  0
   61.0340   45.9570   51.5840 H   0  0  0  0  0  0  0  0  0  0  0  0
   62.0200   47.3870   50.6880 C   0  0  0  0  0  0  0  0  0  0  0  0
   62.6440   48.1130   51.5220 N   0  0  0  0  0  0  0  0  0  0  0  0
   63.7200   48.6910   51.1950 C   0  0  0  0  0  3  0  0  0  0  0  0
   64.2950   48.6070   49.9850 C   0  0  0  0  0  0  0  0  0  0  0  0
   63.6560   47.8460   49.0830 C   0  0  0  0  0  3  0  0  0  0  0  0
   62.5160   47.2380   49.4430 C   0  0  0  0  0  3  0  0  0  0  0  0
   65.5870   49.3280   49.6700 C   0  0  0  0  0  2  0  0  0  0  0  0
   65.3740   50.7680   49.5940 N   0  0  0  0  0  0  0  0  0  0  0  0
   64.1240   51.0790   48.9160 C   0  0  0  0  0  2  0  0  0  0  0  0
   63.8890   52.5970   48.8690 C   0  0  0  0  0  2  0  0  0  0  0  0
   64.9820   53.2810   48.1900 N   0  0  0  0  0  0  0  0  0  0  0  0
   66.2350   52.9630   48.8590 C   0  0  0  0  0  2  0  0  0  0  0  0
   66.4690   51.4440   48.9140 C   0  0  0  0  0  2  0  0  0  0  0  0
   64.7260   54.7170   48.1210 C   0  0  0  0  0  2  0  0  0  0  0  0
   63.2800   55.0740   47.7370 C   0  0  0  0  0  1  0  0  0  0  0  0
   56.6580   45.3680   50.8020 C   0  0  0  0  0  0  0  0  0  0  0  0
   55.6570   44.9690   49.9770 C   0  0  0  0  0  3  0  0  0  0  0  0
   54.7130   44.0720   50.3090 C   0  0  0  0  0  0  0  0  0  0  0  0
   54.7650   43.5310   51.5320 C   0  0  0  0  0  0  0  0  0  0  0  0
   53.7610   43.7320   49.4540 F   0  0  0  0  0  0  0  0  0  0  0  0
   54.0020   42.6810   52.0730 N   0  0  0  0  0  0  0  0  0  0  0  0
   55.7400   43.8890   52.3770 C   0  0  0  0  0  0  0  0  0  0  0  0
   54.4550   42.4810   53.2410 C   0  0  0  0  0  0  0  0  0  0  0  0
   55.4900   43.1990   53.4120 N   0  0  0  0  0  0  0  0  0  0  0  0
   53.7080   41.5190   54.1210 C   0  0  0  0  0  1  0  0  0  0  0  0
   56.6660   44.7920   52.0270 C   0  0  0  0  0  3  0  0  0  0  0  0
   56.3020   43.2480   54.6490 C   0  0  0  0  0  3  0  0  0  0  0  0
   56.9710   41.9300   55.0730 C   0  0  0  0  0  1  0  0  0  0  0  0
   55.4780   43.8510   55.7980 C   0  0  0  0  0  1  0  0  0  0  0  0
  1  6  1  0  0  0  0
  3  5  1  0  0  0  0
  4  2  1  0  0  0  0
  4 25  1  0  0  0  0
  5  2  2  0  0  0  0
  5  8  1  0  0  0  0
  6  4  2  0  0  0  0
  7  6  1  0  0  0  0
  7  3  2  0  0  0  0
  8  9  1  0  0  0  0
 10  8  1  0  0  0  0
 10 11  1  0  0  0  0
 12 11  2  0  0  0  0
 13 12  1  0  0  0  0
 14 15  1  0  0  0  0
 14 13  2  0  0  0  0
 15 10  2  0  0  0  0
 16 13  1  0  0  0  0
 17 16  1  0  0  0  0
 18 17  1  0  0  0  0
 19 18  1  0  0  0  0
 20 21  1  0  0  0  0
 20 19  1  0  0  0  0
 21 22  1  0  0  0  0
 22 17  1  0  0  0  0
 23 20  1  0  0  0  0
 24 23  1  0  0  0  0
 25 35  1  0  0  0  0
 26 27  1  0  0  0  0
 26 25  2  0  0  0  0
 27 28  2  0  0  0  0
 28 30  1  0  0  0  0
 28 31  1  0  0  0  0
 29 27  1  0  0  0  0
 30 32  2  0  0  0  0
 31 33  1  0  0  0  0
 32 33  1  0  0  0  0
 32 34  1  0  0  0  0
 33 36  1  0  0  0  0
 35 31  2  0  0  0  0
 36 37  1  0  0  0  0
 36 38  1  0  0  0  0
M  END
>  <MODEL>
14

>  <REMARK>
 VINA RESULT:    -8.507      3.839     11.310
 INTER + INTRA:         -12.865
 INTER:                 -12.671
 INTRA:                  -0.194
 UNBOUND:                -0.876
  7 active torsions:
  status: ('A' for Active; 'I' for Inactive)
    1  A    between atoms: N3_3  and  C15_15 
    2  A    between atoms: N4_4  and  C16_16 
    3  A    between atoms: N5_5  and  C19_19 
    4  A    between atoms: N8_8  and  C31_31 
    5  A    between atoms: N8_8  and  C35_35 
    6  A    between atoms: C15_15  and  C17_17 
    7  A    between atoms: C28_28  and  C34_34 

>  <TORSDO>
F 7

$$$$
all.pdbqt
 OpenBabel04112516173D

 38 42  0  0  0  0  0  0  0  0999 V2000
   56.5750   47.6730   49.5080 F   0  0  0  0  0  0  0  0  0  0  0  0
   59.6730   46.1470   49.8510 N   0  0  0  0  0  0  0  0  0  0  0  0
   59.8660   47.8750   48.5010 N   0  0  0  0  0  0  0  0  0  0  0  0
   58.4270   46.2920   50.0650 C   0  0  0  0  0  0  0  0  0  0  0  0
   60.3860   46.8900   49.1080 C   0  0  0  0  0  0  0  0  0  0  0  0
   57.8510   47.3360   49.4300 C   0  0  0  0  0  0  0  0  0  0  0  0
   58.6350   48.0970   48.6530 C   0  0  0  0  0  3  0  0  0  0  0  0
   61.6340   46.7170   48.9160 N   0  0  0  0  0  0  0  0  0  0  0  0
   61.8500   46.1710   48.0430 H   0  0  0  0  0  0  0  0  0  0  0  0
   62.6650   47.0750   49.5730 C   0  0  0  0  0  0  0  0  0  0  0  0
   62.8190   46.9530   50.8270 N   0  0  0  0  0  0  0  0  0  0  0  0
   63.8840   47.3420   51.3860 C   0  0  0  0  0  3  0  0  0  0  0  0
   64.9230   47.9030   50.7460 C   0  0  0  0  0  0  0  0  0  0  0  0
   64.7860   48.0440   49.4190 C   0  0  0  0  0  3  0  0  0  0  0  0
   63.6510   47.6270   48.8380 C   0  0  0  0  0  3  0  0  0  0  0  0
   66.1670   48.3410   51.4870 C   0  0  0  0  0  2  0  0  0  0  0  0
   66.7460   47.2310   52.2340 N   0  0  0  0  0  0  0  0  0  0  0  0
   67.0580   47.6220   53.6000 C   0  0  0  0  0  2  0  0  0  0  0  0
   67.6360   46.4380   54.3900 C   0  0  0  0  0  2  0  0  0  0  0  0
   68.8400   45.9160   53.7580 N   0  0  0  0  0  0  0  0  0  0  0  0
   68.5340   45.5340   52.3870 C   0  0  0  0  0  2  0  0  0  0  0  0
   67.9480   46.7160   51.5960 C   0  0  0  0  0  2  0  0  0  0  0  0
   69.3970   44.8170   54.5400 C   0  0  0  0  0  2  0  0  0  0  0  0
   69.8460   45.2230   55.9540 C   0  0  0  0  0  1  0  0  0  0  0  0
   57.8140   45.4010   50.8940 C   0  0  0  0  0  0  0  0  0  0  0  0
   58.4820   44.8580   51.9440 C   0  0  0  0  0  3  0  0  0  0  0  0
   57.9530   43.9690   52.8020 C   0  0  0  0  0  0  0  0  0  0  0  0
   56.6820   43.5980   52.6130 C   0  0  0  0  0  0  0  0  0  0  0  0
   58.6660   43.4760   53.8030 F   0  0  0  0  0  0  0  0  0  0  0  0
   55.9710   42.7860   53.2730 N   0  0  0  0  0  0  0  0  0  0  0  0
   55.9810   44.1130   51.5960 C   0  0  0  0  0  0  0  0  0  0  0  0
   54.8340   42.7620   52.7090 C   0  0  0  0  0  0  0  0  0  0  0  0
   54.8470   43.5570   51.7170 N   0  0  0  0  0  0  0  0  0  0  0  0
   53.7920   41.8460   53.2860 C   0  0  0  0  0  1  0  0  0  0  0  0
   56.5320   44.9910   50.7480 C   0  0  0  0  0  3  0  0  0  0  0  0
   53.7070   43.8040   50.8050 C   0  0  0  0  0  3  0  0  0  0  0  0
   53.9980   43.6580   49.3020 C   0  0  0  0  0  1  0  0  0  0  0  0
   53.0650   45.1640   51.1190 C   0  0  0  0  0  1  0  0  0  0  0  0
  2  4  1  0  0  0  0
  3  7  2  0  0  0  0
  3  5  1  0  0  0  0
  4 25  1  0  0  0  0
  5  2  2  0  0  0  0
  6  1  1  0  0  0  0
  6  4  2  0  0  0  0
  7  6  1  0  0  0  0
  8  5  1  0  0  0  0
  8 10  1  0  0  0  0
  9  8  1  0  0  0  0
 10 11  1  0  0  0  0
 11 12  2  0  0  0  0
 13 12  1  0  0  0  0
 13 16  1  0  0  0  0
 14 13  2  0  0  0  0
 15 14  1  0  0  0  0
 15 10  2  0  0  0  0
 16 17  1  0  0  0  0
 17 18  1  0  0  0  0
 18 19  1  0  0  0  0
 20 19  1  0  0  0  0
 20 23  1  0  0  0  0
 21 20  1  0  0  0  0
 22 17  1  0  0  0  0
 22 21  1  0  0  0  0
 23 24  1  0  0  0  0
 25 26  1  0  0  0  0
 26 27  2  0  0  0  0
 27 29  1  0  0  0  0
 28 27  1  0  0  0  0
 28 30  1  0  0  0  0
 31 33  1  0  0  0  0
 31 28  2  0  0  0  0
 32 30  2  0  0  0  0
 32 34  1  0  0  0  0
 33 32  1  0  0  0  0
 35 25  2  0  0  0  0
 35 31  1  0  0  0  0
 36 38  1  0  0  0  0
 36 33  1  0  0  0  0
 37 36  1  0  0  0  0
M  END
>  <MODEL>
15

>  <REMARK>
 VINA RESULT:    -8.505      3.999     10.451
 INTER + INTRA:         -12.861
 INTER:                 -11.947
 INTRA:                  -0.914
 UNBOUND:                -0.876
  7 active torsions:
  status: ('A' for Active; 'I' for Inactive)
    1  A    between atoms: N3_3  and  C15_15 
    2  A    between atoms: N4_4  and  C16_16 
    3  A    between atoms: N5_5  and  C19_19 
    4  A    between atoms: N8_8  and  C31_31 
    5  A    between atoms: N8_8  and  C35_35 
    6  A    between atoms: C15_15  and  C17_17 
    7  A    between atoms: C28_28  and  C34_34 

>  <TORSDO>
F 7

$$$$
all.pdbqt
 OpenBabel04112516173D

 38 42  0  0  0  0  0  0  0  0999 V2000
   64.9570   49.2620   52.9820 F   0  0  0  0  0  0  0  0  0  0  0  0
   68.0120   48.6370   51.4610 N   0  0  0  0  0  0  0  0  0  0  0  0
   67.7570   47.2580   53.1580 N   0  0  0  0  0  0  0  0  0  0  0  0
   66.8980   49.2330   51.6120 C   0  0  0  0  0  0  0  0  0  0  0  0
   68.4480   47.6880   52.1850 C   0  0  0  0  0  0  0  0  0  0  0  0
   66.1440   48.7900   52.6420 C   0  0  0  0  0  0  0  0  0  0  0  0
   66.6370   47.7880   53.3850 C   0  0  0  0  0  3  0  0  0  0  0  0
   69.5700   47.1120   52.0040 N   0  0  0  0  0  0  0  0  0  0  0  0
   70.3430   47.7770   51.7440 H   0  0  0  0  0  0  0  0  0  0  0  0
   69.9350   45.8940   52.0780 C   0  0  0  0  0  0  0  0  0  0  0  0
   71.0050   45.4780   52.6200 N   0  0  0  0  0  0  0  0  0  0  0  0
   71.2790   44.2430   52.6410 C   0  0  0  0  0  3  0  0  0  0  0  0
   70.5050   43.2800   52.1160 C   0  0  0  0  0  0  0  0  0  0  0  0
   69.3670   43.6930   51.5360 C   0  0  0  0  0  3  0  0  0  0  0  0
   69.0890   45.0050   51.5210 C   0  0  0  0  0  3  0  0  0  0  0  0
   70.9010   41.8220   52.1830 C   0  0  0  0  0  2  0  0  0  0  0  0
   70.8360   41.2040   50.8640 N   0  0  0  0  0  0  0  0  0  0  0  0
   70.4060   39.8170   50.9540 C   0  0  0  0  0  2  0  0  0  0  0  0
   70.3070   39.1830   49.5570 C   0  0  0  0  0  2  0  0  0  0  0  0
   71.5830   39.2410   48.8570 N   0  0  0  0  0  0  0  0  0  0  0  0
   72.0220   40.6270   48.7760 C   0  0  0  0  0  2  0  0  0  0  0  0
   72.1140   41.2660   50.1720 C   0  0  0  0  0  2  0  0  0  0  0  0
   71.4820   38.6020   47.5490 C   0  0  0  0  0  2  0  0  0  0  0  0
   70.8650   39.4990   46.4630 C   0  0  0  0  0  1  0  0  0  0  0  0
   66.5860   50.2330   50.7420 C   0  0  0  0  0  0  0  0  0  0  0  0
   67.5480   51.0670   50.2710 C   0  0  0  0  0  3  0  0  0  0  0  0
   67.3220   52.0800   49.4170 C   0  0  0  0  0  0  0  0  0  0  0  0
   66.0670   52.2760   48.9970 C   0  0  0  0  0  0  0  0  0  0  0  0
   68.3100   52.8590   49.0020 F   0  0  0  0  0  0  0  0  0  0  0  0
   65.6060   53.1510   48.2080 N   0  0  0  0  0  0  0  0  0  0  0  0
   65.0870   51.4730   49.4290 C   0  0  0  0  0  0  0  0  0  0  0  0
   64.3590   52.9360   48.1200 C   0  0  0  0  0  0  0  0  0  0  0  0
   64.0600   51.9350   48.8450 N   0  0  0  0  0  0  0  0  0  0  0  0
   63.5540   53.8610   47.2520 C   0  0  0  0  0  1  0  0  0  0  0  0
   65.3350   50.4750   50.2870 C   0  0  0  0  0  3  0  0  0  0  0  0
   62.6990   51.3740   49.0080 C   0  0  0  0  0  3  0  0  0  0  0  0
   62.0850   51.4860   50.4130 C   0  0  0  0  0  1  0  0  0  0  0  0
   62.6580   49.9270   48.4940 C   0  0  0  0  0  1  0  0  0  0  0  0
  2  4  1  0  0  0  0
  2  5  2  0  0  0  0
  3  7  2  0  0  0  0
  4  6  2  0  0  0  0
  5  3  1  0  0  0  0
  6  1  1  0  0  0  0
  6  7  1  0  0  0  0
  8 10  1  0  0  0  0
  8  5  1  0  0  0  0
  9  8  1  0  0  0  0
 10 11  1  0  0  0  0
 11 12  2  0  0  0  0
 13 16  1  0  0  0  0
 13 12  1  0  0  0  0
 14 13  2  0  0  0  0
 15 14  1  0  0  0  0
 15 10  2  0  0  0  0
 17 18  1  0  0  0  0
 17 16  1  0  0  0  0
 19 18  1  0  0  0  0
 20 19  1  0  0  0  0
 21 20  1  0  0  0  0
 21 22  1  0  0  0  0
 22 17  1  0  0  0  0
 23 20  1  0  0  0  0
 24 23  1  0  0  0  0
 25  4  1  0  0  0  0
 26 25  2  0  0  0  0
 27 26  1  0  0  0  0
 28 27  2  0  0  0  0
 28 31  1  0  0  0  0
 29 27  1  0  0  0  0
 30 28  1  0  0  0  0
 31 35  2  0  0  0  0
 32 30  2  0  0  0  0
 32 33  1  0  0  0  0
 33 36  1  0  0  0  0
 33 31  1  0  0  0  0
 34 32  1  0  0  0  0
 35 25  1  0  0  0  0
 36 37  1  0  0  0  0
 38 36  1  0  0  0  0
M  END
>  <MODEL>
16

>  <REMARK>
 VINA RESULT:    -8.492      5.417      8.324
 INTER + INTRA:         -12.843
 INTER:                 -12.173
 INTRA:                  -0.670
 UNBOUND:                -0.876
  7 active torsions:
  status: ('A' for Active; 'I' for Inactive)
    1  A    between atoms: N3_3  and  C15_15 
    2  A    between atoms: N4_4  and  C16_16 
    3  A    between atoms: N5_5  and  C19_19 
    4  A    between atoms: N8_8  and  C31_31 
    5  A    between atoms: N8_8  and  C35_35 
    6  A    between atoms: C15_15  and  C17_17 
    7  A    between atoms: C28_28  and  C34_34 

>  <TORSDO>
F 7

$$$$
all.pdbqt
 OpenBabel04112516173D

 38 42  0  0  0  0  0  0  0  0999 V2000
   67.7520   49.6800   53.4490 F   0  0  0  0  0  0  0  0  0  0  0  0
   65.7500   47.5660   51.5610 N   0  0  0  0  0  0  0  0  0  0  0  0
   66.4770   46.4780   53.3320 N   0  0  0  0  0  0  0  0  0  0  0  0
   66.3360   48.6620   51.8350 C   0  0  0  0  0  0  0  0  0  0  0  0
   65.8000   46.5060   52.2610 C   0  0  0  0  0  0  0  0  0  0  0  0
   67.0640   48.6560   52.9740 C   0  0  0  0  0  0  0  0  0  0  0  0
   67.0930   47.5200   53.6850 C   0  0  0  0  0  3  0  0  0  0  0  0
   65.1980   45.4250   51.9570 N   0  0  0  0  0  0  0  0  0  0  0  0
   65.6900   44.8680   51.2120 H   0  0  0  0  0  0  0  0  0  0  0  0
   64.1220   44.8890   52.3790 C   0  0  0  0  0  0  0  0  0  0  0  0
   62.9510   45.3410   52.1900 N   0  0  0  0  0  0  0  0  0  0  0  0
   61.9430   44.7330   52.6530 C   0  0  0  0  0  3  0  0  0  0  0  0
   61.9970   43.5950   53.3630 C   0  0  0  0  0  0  0  0  0  0  0  0
   63.2240   43.0960   53.5780 C   0  0  0  0  0  3  0  0  0  0  0  0
   64.2840   43.7500   53.0820 C   0  0  0  0  0  3  0  0  0  0  0  0
   60.7440   42.9250   53.8820 C   0  0  0  0  0  2  0  0  0  0  0  0
   61.0690   41.9210   54.8870 N   0  0  0  0  0  0  0  0  0  0  0  0
   60.3960   40.6610   54.6090 C   0  0  0  0  0  2  0  0  0  0  0  0
   60.7710   39.5980   55.6540 C   0  0  0  0  0  2  0  0  0  0  0  0
   60.4270   40.0340   57.0000 N   0  0  0  0  0  0  0  0  0  0  0  0
   61.0900   41.3000   57.2780 C   0  0  0  0  0  2  0  0  0  0  0  0
   60.7220   42.3640   56.2290 C   0  0  0  0  0  2  0  0  0  0  0  0
   60.7550   38.9980   57.9760 C   0  0  0  0  0  2  0  0  0  0  0  0
   59.7790   38.9280   59.1620 C   0  0  0  0  0  1  0  0  0  0  0  0
   66.1750   49.7040   50.9730 C   0  0  0  0  0  0  0  0  0  0  0  0
   67.2430   50.4320   50.5580 C   0  0  0  0  0  3  0  0  0  0  0  0
   67.1680   51.4770   49.7170 C   0  0  0  0  0  0  0  0  0  0  0  0
   65.9620   51.8200   49.2510 C   0  0  0  0  0  0  0  0  0  0  0  0
   68.2530   52.1460   49.3580 F   0  0  0  0  0  0  0  0  0  0  0  0
   65.6360   52.7530   48.4620 N   0  0  0  0  0  0  0  0  0  0  0  0
   64.8810   51.1250   49.6260 C   0  0  0  0  0  0  0  0  0  0  0  0
   64.3770   52.6800   48.3190 C   0  0  0  0  0  0  0  0  0  0  0  0
   63.9370   51.7080   49.0100 N   0  0  0  0  0  0  0  0  0  0  0  0
   63.7180   53.7040   47.4380 C   0  0  0  0  0  1  0  0  0  0  0  0
   64.9790   50.0920   50.4730 C   0  0  0  0  0  3  0  0  0  0  0  0
   62.5170   51.3020   49.1070 C   0  0  0  0  0  3  0  0  0  0  0  0
   61.8550   51.4750   50.4840 C   0  0  0  0  0  1  0  0  0  0  0  0
   62.3390   49.8700   48.5780 C   0  0  0  0  0  1  0  0  0  0  0  0
  2  4  1  0  0  0  0
  2  5  2  0  0  0  0
  3  7  2  0  0  0  0
  4  6  2  0  0  0  0
  5  3  1  0  0  0  0
  6  1  1  0  0  0  0
  6  7  1  0  0  0  0
  8  5  1  0  0  0  0
  8 10  1  0  0  0  0
  9  8  1  0  0  0  0
 10 15  1  0  0  0  0
 11 10  2  0  0  0  0
 11 12  1  0  0  0  0
 12 13  2  0  0  0  0
 13 14  1  0  0  0  0
 13 16  1  0  0  0  0
 15 14  2  0  0  0  0
 16 17  1  0  0  0  0
 17 22  1  0  0  0  0
 18 17  1  0  0  0  0
 18 19  1  0  0  0  0
 19 20  1  0  0  0  0
 20 21  1  0  0  0  0
 20 23  1  0  0  0  0
 22 21  1  0  0  0  0
 23 24  1  0  0  0  0
 25  4  1  0  0  0  0
 26 25  1  0  0  0  0
 27 26  2  0  0  0  0
 28 31  2  0  0  0  0
 28 27  1  0  0  0  0
 29 27  1  0  0  0  0
 30 28  1  0  0  0  0
 31 35  1  0  0  0  0
 32 30  2  0  0  0  0
 32 33  1  0  0  0  0
 33 36  1  0  0  0  0
 33 31  1  0  0  0  0
 34 32  1  0  0  0  0
 35 25  2  0  0  0  0
 36 37  1  0  0  0  0
 38 36  1  0  0  0  0
M  END
>  <MODEL>
17

>  <REMARK>
 VINA RESULT:    -8.438      2.684      3.105
 INTER + INTRA:         -12.768
 INTER:                 -11.760
 INTRA:                  -1.007
 UNBOUND:                -0.876
  7 active torsions:
  status: ('A' for Active; 'I' for Inactive)
    1  A    between atoms: N3_3  and  C15_15 
    2  A    between atoms: N4_4  and  C16_16 
    3  A    between atoms: N5_5  and  C19_19 
    4  A    between atoms: N8_8  and  C31_31 
    5  A    between atoms: N8_8  and  C35_35 
    6  A    between atoms: C15_15  and  C17_17 
    7  A    between atoms: C28_28  and  C34_34 

>  <TORSDO>
F 7

$$$$
all.pdbqt
 OpenBabel04112516173D

 38 42  0  0  0  0  0  0  0  0999 V2000
   60.7270   50.5820   50.1370 F   0  0  0  0  0  0  0  0  0  0  0  0
   61.8660   47.3090   49.9440 N   0  0  0  0  0  0  0  0  0  0  0  0
   59.6670   47.3140   49.8370 N   0  0  0  0  0  0  0  0  0  0  0  0
   61.9910   48.5710   50.0470 C   0  0  0  0  0  0  0  0  0  0  0  0
   60.7660   46.6820   49.8420 C   0  0  0  0  0  0  0  0  0  0  0  0
   60.8330   49.2670   50.0420 C   0  0  0  0  0  0  0  0  0  0  0  0
   59.6920   48.5710   49.9340 C   0  0  0  0  0  3  0  0  0  0  0  0
   60.6770   45.4150   49.7400 N   0  0  0  0  0  0  0  0  0  0  0  0
   60.4010   45.0910   48.7770 H   0  0  0  0  0  0  0  0  0  0  0  0
   60.8580   44.4680   50.5730 C   0  0  0  0  0  0  0  0  0  0  0  0
   61.6860   43.5160   50.4370 N   0  0  0  0  0  0  0  0  0  0  0  0
   61.7900   42.6200   51.3240 C   0  0  0  0  0  3  0  0  0  0  0  0
   61.0690   42.5790   52.4550 C   0  0  0  0  0  0  0  0  0  0  0  0
   60.1840   43.5740   52.6240 C   0  0  0  0  0  3  0  0  0  0  0  0
   60.0850   44.5170   51.6760 C   0  0  0  0  0  3  0  0  0  0  0  0
   61.2530   41.4730   53.4720 C   0  0  0  0  0  2  0  0  0  0  0  0
   62.4330   41.7140   54.2940 N   0  0  0  0  0  0  0  0  0  0  0  0
   62.9490   40.4720   54.8480 C   0  0  0  0  0  2  0  0  0  0  0  0
   64.2120   40.7300   55.6860 C   0  0  0  0  0  2  0  0  0  0  0  0
   63.9460   41.6620   56.7730 N   0  0  0  0  0  0  0  0  0  0  0  0
   63.4180   42.9010   56.2230 C   0  0  0  0  0  2  0  0  0  0  0  0
   62.1580   42.6450   55.3780 C   0  0  0  0  0  2  0  0  0  0  0  0
   65.1450   41.8670   57.5800 C   0  0  0  0  0  2  0  0  0  0  0  0
   64.8690   41.9780   59.0890 C   0  0  0  0  0  1  0  0  0  0  0  0
   63.2510   49.0810   50.1470 C   0  0  0  0  0  0  0  0  0  0  0  0
   64.1540   48.5320   50.9990 C   0  0  0  0  0  3  0  0  0  0  0  0
   65.4110   48.9790   51.1610 C   0  0  0  0  0  0  0  0  0  0  0  0
   65.8010   50.0310   50.4320 C   0  0  0  0  0  0  0  0  0  0  0  0
   66.2400   48.3970   52.0150 F   0  0  0  0  0  0  0  0  0  0  0  0
   66.9150   50.6300   50.4080 N   0  0  0  0  0  0  0  0  0  0  0  0
   64.9460   50.6000   49.5740 C   0  0  0  0  0  0  0  0  0  0  0  0
   66.8020   51.5670   49.5610 C   0  0  0  0  0  0  0  0  0  0  0  0
   65.6310   51.5390   49.0670 N   0  0  0  0  0  0  0  0  0  0  0  0
   67.9910   52.4620   49.3520 C   0  0  0  0  0  1  0  0  0  0  0  0
   63.6950   50.1420   49.4350 C   0  0  0  0  0  3  0  0  0  0  0  0
   65.1130   52.4770   48.0440 C   0  0  0  0  0  3  0  0  0  0  0  0
   64.3270   53.6880   48.5730 C   0  0  0  0  0  1  0  0  0  0  0  0
   64.3090   51.7100   46.9830 C   0  0  0  0  0  1  0  0  0  0  0  0
  2  4  1  0  0  0  0
  3  5  1  0  0  0  0
  3  7  2  0  0  0  0
  4 25  1  0  0  0  0
  5  2  2  0  0  0  0
  6  4  2  0  0  0  0
  6  1  1  0  0  0  0
  7  6  1  0  0  0  0
  8  5  1  0  0  0  0
  8 10  1  0  0  0  0
  9  8  1  0  0  0  0
 10 15  1  0  0  0  0
 11 10  2  0  0  0  0
 11 12  1  0  0  0  0
 12 13  2  0  0  0  0
 13 14  1  0  0  0  0
 13 16  1  0  0  0  0
 15 14  2  0  0  0  0
 16 17  1  0  0  0  0
 17 18  1  0  0  0  0
 17 22  1  0  0  0  0
 18 19  1  0  0  0  0
 19 20  1  0  0  0  0
 20 23  1  0  0  0  0
 21 20  1  0  0  0  0
 22 21  1  0  0  0  0
 23 24  1  0  0  0  0
 25 26  1  0  0  0  0
 26 27  2  0  0  0  0
 27 29  1  0  0  0  0
 28 27  1  0  0  0  0
 30 28  1  0  0  0  0
 31 28  2  0  0  0  0
 32 30  2  0  0  0  0
 33 32  1  0  0  0  0
 33 31  1  0  0  0  0
 34 32  1  0  0  0  0
 35 31  1  0  0  0  0
 35 25  2  0  0  0  0
 36 37  1  0  0  0  0
 36 33  1  0  0  0  0
 38 36  1  0  0  0  0
M  END
>  <MODEL>
18

>  <REMARK>
 VINA RESULT:    -8.408      3.406      5.272
 INTER + INTRA:         -12.725
 INTER:                 -12.010
 INTRA:                  -0.715
 UNBOUND:                -0.876
  7 active torsions:
  status: ('A' for Active; 'I' for Inactive)
    1  A    between atoms: N3_3  and  C15_15 
    2  A    between atoms: N4_4  and  C16_16 
    3  A    between atoms: N5_5  and  C19_19 
    4  A    between atoms: N8_8  and  C31_31 
    5  A    between atoms: N8_8  and  C35_35 
    6  A    between atoms: C15_15  and  C17_17 
    7  A    between atoms: C28_28  and  C34_34 

>  <TORSDO>
F 7

$$$$
all.pdbqt
 OpenBabel04112516173D

 38 42  0  0  0  0  0  0  0  0999 V2000
   54.7930   43.4880   51.3960 F   0  0  0  0  0  0  0  0  0  0  0  0
   57.5020   45.6320   51.0630 N   0  0  0  0  0  0  0  0  0  0  0  0
   55.9340   46.2250   49.6360 N   0  0  0  0  0  0  0  0  0  0  0  0
   56.8590   44.6520   51.5590 C   0  0  0  0  0  0  0  0  0  0  0  0
   57.0820   46.4020   50.1430 C   0  0  0  0  0  0  0  0  0  0  0  0
   55.6310   44.4440   51.0340 C   0  0  0  0  0  0  0  0  0  0  0  0
   55.2230   45.2760   50.0640 C   0  0  0  0  0  3  0  0  0  0  0  0
   57.7530   47.3770   49.6710 N   0  0  0  0  0  0  0  0  0  0  0  0
   57.1630   48.2170   49.4410 H   0  0  0  0  0  0  0  0  0  0  0  0
   58.9940   47.5310   49.4270 C   0  0  0  0  0  0  0  0  0  0  0  0
   59.5900   47.1500   48.3730 N   0  0  0  0  0  0  0  0  0  0  0  0
   60.8300   47.3510   48.2250 C   0  0  0  0  0  3  0  0  0  0  0  0
   61.6170   47.9610   49.1250 C   0  0  0  0  0  0  0  0  0  0  0  0
   61.0120   48.3740   50.2500 C   0  0  0  0  0  3  0  0  0  0  0  0
   59.6970   48.1550   50.3930 C   0  0  0  0  0  3  0  0  0  0  0  0
   63.0950   48.1670   48.8740 C   0  0  0  0  0  2  0  0  0  0  0  0
   63.4730   49.5560   49.1060 N   0  0  0  0  0  0  0  0  0  0  0  0
   62.9730   50.4210   48.0490 C   0  0  0  0  0  2  0  0  0  0  0  0
   63.3460   51.8870   48.3180 C   0  0  0  0  0  2  0  0  0  0  0  0
   64.7890   52.0550   48.4270 N   0  0  0  0  0  0  0  0  0  0  0  0
   65.2950   51.1820   49.4770 C   0  0  0  0  0  2  0  0  0  0  0  0
   64.9150   49.7150   49.2140 C   0  0  0  0  0  2  0  0  0  0  0  0
   65.1290   53.4580   48.6450 C   0  0  0  0  0  2  0  0  0  0  0  0
   64.1580   54.4450   47.9770 C   0  0  0  0  0  1  0  0  0  0  0  0
   57.4600   43.9270   52.5440 C   0  0  0  0  0  0  0  0  0  0  0  0
   56.7280   43.3840   53.5490 C   0  0  0  0  0  3  0  0  0  0  0  0
   57.2440   42.6650   54.5600 C   0  0  0  0  0  0  0  0  0  0  0  0
   58.5660   42.4640   54.5740 C   0  0  0  0  0  0  0  0  0  0  0  0
   56.4690   42.1680   55.5120 F   0  0  0  0  0  0  0  0  0  0  0  0
   59.2800   41.8330   55.4060 N   0  0  0  0  0  0  0  0  0  0  0  0
   59.3280   42.9740   53.5980 C   0  0  0  0  0  0  0  0  0  0  0  0
   60.4770   41.9230   54.9960 C   0  0  0  0  0  0  0  0  0  0  0  0
   60.4960   42.5980   53.9190 N   0  0  0  0  0  0  0  0  0  0  0  0
   61.5470   41.2720   55.8270 C   0  0  0  0  0  1  0  0  0  0  0  0
   58.7920   43.6960   52.6050 C   0  0  0  0  0  3  0  0  0  0  0  0
   61.7100   42.9240   53.1360 C   0  0  0  0  0  3  0  0  0  0  0  0
   61.9930   44.4190   52.9160 C   0  0  0  0  0  1  0  0  0  0  0  0
   61.7030   42.1560   51.8050 C   0  0  0  0  0  1  0  0  0  0  0  0
  2  4  1  0  0  0  0
  3  7  2  0  0  0  0
  3  5  1  0  0  0  0
  4 25  1  0  0  0  0
  5  2  2  0  0  0  0
  6  1  1  0  0  0  0
  6  4  2  0  0  0  0
  7  6  1  0  0  0  0
  8  5  1  0  0  0  0
  9  8  1  0  0  0  0
 10  8  1  0  0  0  0
 10 15  1  0  0  0  0
 11 10  2  0  0  0  0
 12 11  1  0  0  0  0
 12 13  2  0  0  0  0
 13 14  1  0  0  0  0
 14 15  2  0  0  0  0
 16 17  1  0  0  0  0
 16 13  1  0  0  0  0
 17 22  1  0  0  0  0
 18 19  1  0  0  0  0
 18 17  1  0  0  0  0
 19 20  1  0  0  0  0
 20 23  1  0  0  0  0
 20 21  1  0  0  0  0
 22 21  1  0  0  0  0
 24 23  1  0  0  0  0
 25 35  2  0  0  0  0
 25 26  1  0  0  0  0
 26 27  2  0  0  0  0
 27 28  1  0  0  0  0
 27 29  1  0  0  0  0
 28 30  1  0  0  0  0
 31 33  1  0  0  0  0
 31 28  2  0  0  0  0
 32 30  2  0  0  0  0
 32 34  1  0  0  0  0
 33 32  1  0  0  0  0
 35 31  1  0  0  0  0
 36 33  1  0  0  0  0
 37 36  1  0  0  0  0
 38 36  1  0  0  0  0
M  END
>  <MODEL>
19

>  <REMARK>
 VINA RESULT:    -8.378      4.310     10.821
 INTER + INTRA:         -12.683
 INTER:                 -11.650
 INTRA:                  -1.033
 UNBOUND:                -0.876
  7 active torsions:
  status: ('A' for Active; 'I' for Inactive)
    1  A    between atoms: N3_3  and  C15_15 
    2  A    between atoms: N4_4  and  C16_16 
    3  A    between atoms: N5_5  and  C19_19 
    4  A    between atoms: N8_8  and  C31_31 
    5  A    between atoms: N8_8  and  C35_35 
    6  A    between atoms: C15_15  and  C17_17 
    7  A    between atoms: C28_28  and  C34_34 

>  <TORSDO>
F 7

$$$$
all.pdbqt
 OpenBabel04112516173D

 38 42  0  0  0  0  0  0  0  0999 V2000
   63.6260   50.7400   48.4540 F   0  0  0  0  0  0  0  0  0  0  0  0
   65.1360   49.1120   51.1210 N   0  0  0  0  0  0  0  0  0  0  0  0
   66.5410   50.5890   50.2900 N   0  0  0  0  0  0  0  0  0  0  0  0
   64.1920   49.3600   50.3040 C   0  0  0  0  0  0  0  0  0  0  0  0
   66.2700   49.6850   51.1370 C   0  0  0  0  0  0  0  0  0  0  0  0
   64.4580   50.3220   49.3930 C   0  0  0  0  0  0  0  0  0  0  0  0
   65.6650   50.9040   49.4400 C   0  0  0  0  0  3  0  0  0  0  0  0
   67.1930   49.4110   51.9710 N   0  0  0  0  0  0  0  0  0  0  0  0
   67.7980   50.2390   52.2110 H   0  0  0  0  0  0  0  0  0  0  0  0
   67.5240   48.3370   52.5690 C   0  0  0  0  0  0  0  0  0  0  0  0
   67.1340   47.9870   53.7250 N   0  0  0  0  0  0  0  0  0  0  0  0
   67.5220   46.8960   54.2340 C   0  0  0  0  0  3  0  0  0  0  0  0
   68.3510   46.0260   53.6350 C   0  0  0  0  0  0  0  0  0  0  0  0
   68.7790   46.3710   52.4110 C   0  0  0  0  0  3  0  0  0  0  0  0
   68.3600   47.5310   51.8840 C   0  0  0  0  0  3  0  0  0  0  0  0
   68.7670   44.7370   54.3090 C   0  0  0  0  0  2  0  0  0  0  0  0
   67.6040   44.0020   54.7890 N   0  0  0  0  0  0  0  0  0  0  0  0
   67.9960   42.9280   55.6900 C   0  0  0  0  0  2  0  0  0  0  0  0
   66.7620   42.1790   56.2190 C   0  0  0  0  0  2  0  0  0  0  0  0
   65.9730   41.6220   55.1280 N   0  0  0  0  0  0  0  0  0  0  0  0
   65.5890   42.6920   54.2190 C   0  0  0  0  0  2  0  0  0  0  0  0
   66.8220   43.4480   53.6950 C   0  0  0  0  0  2  0  0  0  0  0  0
   64.8260   40.8830   55.6480 C   0  0  0  0  0  2  0  0  0  0  0  0
   63.5030   41.2000   54.9310 C   0  0  0  0  0  1  0  0  0  0  0  0
   63.0370   48.6490   50.4290 C   0  0  0  0  0  0  0  0  0  0  0  0
   61.8450   49.1970   50.0800 C   0  0  0  0  0  3  0  0  0  0  0  0
   60.6630   48.5660   50.1790 C   0  0  0  0  0  0  0  0  0  0  0  0
   60.6600   47.3120   50.6470 C   0  0  0  0  0  0  0  0  0  0  0  0
   59.5360   49.1640   49.8240 F   0  0  0  0  0  0  0  0  0  0  0  0
   59.6900   46.5220   50.8330 N   0  0  0  0  0  0  0  0  0  0  0  0
   61.8130   46.7290   50.9960 C   0  0  0  0  0  0  0  0  0  0  0  0
   60.1850   45.4480   51.2930 C   0  0  0  0  0  0  0  0  0  0  0  0
   61.4460   45.5770   51.3820 N   0  0  0  0  0  0  0  0  0  0  0  0
   59.2340   44.3340   51.6300 C   0  0  0  0  0  1  0  0  0  0  0  0
   62.9790   47.3810   50.8960 C   0  0  0  0  0  3  0  0  0  0  0  0
   62.3790   44.5400   51.8780 C   0  0  0  0  0  3  0  0  0  0  0  0
   62.2840   43.1630   51.2010 C   0  0  0  0  0  1  0  0  0  0  0  0
   62.2700   44.4190   53.4060 C   0  0  0  0  0  1  0  0  0  0  0  0
  1  6  1  0  0  0  0
  2  5  2  0  0  0  0
  3  5  1  0  0  0  0
  4 25  1  0  0  0  0
  4  2  1  0  0  0  0
  5  8  1  0  0  0  0
  6  7  1  0  0  0  0
  6  4  2  0  0  0  0
  7  3  2  0  0  0  0
  8  9  1  0  0  0  0
  8 10  1  0  0  0  0
 10 11  1  0  0  0  0
 11 12  2  0  0  0  0
 13 12  1  0  0  0  0
 13 16  1  0  0  0  0
 14 13  2  0  0  0  0
 15 14  1  0  0  0  0
 15 10  2  0  0  0  0
 16 17  1  0  0  0  0
 17 18  1  0  0  0  0
 18 19  1  0  0  0  0
 20 23  1  0  0  0  0
 20 19  1  0  0  0  0
 21 20  1  0  0  0  0
 22 21  1  0  0  0  0
 22 17  1  0  0  0  0
 24 23  1  0  0  0  0
 25 35  1  0  0  0  0
 26 27  1  0  0  0  0
 26 25  2  0  0  0  0
 27 28  2  0  0  0  0
 28 30  1  0  0  0  0
 28 31  1  0  0  0  0
 29 27  1  0  0  0  0
 30 32  2  0  0  0  0
 31 33  1  0  0  0  0
 32 33  1  0  0  0  0
 32 34  1  0  0  0  0
 33 36  1  0  0  0  0
 35 31  2  0  0  0  0
 36 38  1  0  0  0  0
 37 36  1  0  0  0  0
M  END
>  <MODEL>
20

>  <REMARK>
 VINA RESULT:    -8.376      3.193      7.537
 INTER + INTRA:         -12.680
 INTER:                 -11.214
 INTRA:                  -1.467
 UNBOUND:                -0.876
  7 active torsions:
  status: ('A' for Active; 'I' for Inactive)
    1  A    between atoms: N3_3  and  C15_15 
    2  A    between atoms: N4_4  and  C16_16 
    3  A    between atoms: N5_5  and  C19_19 
    4  A    between atoms: N8_8  and  C31_31 
    5  A    between atoms: N8_8  and  C35_35 
    6  A    between atoms: C15_15  and  C17_17 
    7  A    between atoms: C28_28  and  C34_34 

>  <TORSDO>
F 7

$$$$
all.pdbqt
 OpenBabel04112516173D

 38 42  0  0  0  0  0  0  0  0999 V2000
   57.0260   46.9340   49.3320 F   0  0  0  0  0  0  0  0  0  0  0  0
   60.4820   47.0350   49.6330 N   0  0  0  0  0  0  0  0  0  0  0  0
   59.8510   48.4740   48.0910 N   0  0  0  0  0  0  0  0  0  0  0  0
   59.3100   46.6260   49.9120 C   0  0  0  0  0  0  0  0  0  0  0  0
   60.7690   47.9180   48.7660 C   0  0  0  0  0  0  0  0  0  0  0  0
   58.3140   47.2050   49.2060 C   0  0  0  0  0  0  0  0  0  0  0  0
   58.6560   48.1320   48.2990 C   0  0  0  0  0  3  0  0  0  0  0  0
   61.9560   48.3050   48.5120 N   0  0  0  0  0  0  0  0  0  0  0  0
   62.1240   48.4970   47.4910 H   0  0  0  0  0  0  0  0  0  0  0  0
   62.9740   48.5060   49.2510 C   0  0  0  0  0  0  0  0  0  0  0  0
   63.0530   49.3720   50.1770 N   0  0  0  0  0  0  0  0  0  0  0  0
   64.1130   49.4930   50.8560 C   0  0  0  0  0  3  0  0  0  0  0  0
   65.2210   48.7570   50.6820 C   0  0  0  0  0  0  0  0  0  0  0  0
   65.1650   47.8340   49.7080 C   0  0  0  0  0  3  0  0  0  0  0  0
   64.0350   47.7150   48.9960 C   0  0  0  0  0  3  0  0  0  0  0  0
   66.4520   48.9610   51.5380 C   0  0  0  0  0  2  0  0  0  0  0  0
   66.9290   47.6920   52.0740 N   0  0  0  0  0  0  0  0  0  0  0  0
   66.9190   47.7000   53.5290 C   0  0  0  0  0  2  0  0  0  0  0  0
   67.3910   46.3470   54.0870 C   0  0  0  0  0  2  0  0  0  0  0  0
   68.7330   46.0210   53.6210 N   0  0  0  0  0  0  0  0  0  0  0  0
   68.7480   46.0250   52.1660 C   0  0  0  0  0  2  0  0  0  0  0  0
   68.2690   47.3740   51.6050 C   0  0  0  0  0  2  0  0  0  0  0  0
   69.1800   44.7530   54.1890 C   0  0  0  0  0  2  0  0  0  0  0  0
   69.2360   44.7440   55.7250 C   0  0  0  0  0  1  0  0  0  0  0  0
   59.1800   45.6680   50.8730 C   0  0  0  0  0  0  0  0  0  0  0  0
   60.2270   44.8690   51.2000 C   0  0  0  0  0  3  0  0  0  0  0  0
   60.1790   43.8990   52.1290 C   0  0  0  0  0  0  0  0  0  0  0  0
   59.0260   43.7120   52.7800 C   0  0  0  0  0  0  0  0  0  0  0  0
   61.2400   43.1510   52.3940 F   0  0  0  0  0  0  0  0  0  0  0  0
   58.7330   42.8750   53.6820 N   0  0  0  0  0  0  0  0  0  0  0  0
   57.9690   44.4830   52.4970 C   0  0  0  0  0  0  0  0  0  0  0  0
   57.5190   43.0830   53.9860 C   0  0  0  0  0  0  0  0  0  0  0  0
   57.0740   44.0430   53.2810 N   0  0  0  0  0  0  0  0  0  0  0  0
   56.9030   42.1960   55.0300 C   0  0  0  0  0  1  0  0  0  0  0  0
   58.0370   45.4380   51.5600 C   0  0  0  0  0  3  0  0  0  0  0  0
   55.6960   44.5810   53.3420 C   0  0  0  0  0  3  0  0  0  0  0  0
   55.2750   45.2130   54.6790 C   0  0  0  0  0  1  0  0  0  0  0  0
   54.6900   43.5120   52.8890 C   0  0  0  0  0  1  0  0  0  0  0  0
  2  4  1  0  0  0  0
  3  7  2  0  0  0  0
  3  5  1  0  0  0  0
  4 25  1  0  0  0  0
  5  2  2  0  0  0  0
  6  1  1  0  0  0  0
  6  4  2  0  0  0  0
  7  6  1  0  0  0  0
  8  5  1  0  0  0  0
  8 10  1  0  0  0  0
  9  8  1  0  0  0  0
 10 11  1  0  0  0  0
 11 12  2  0  0  0  0
 13 12  1  0  0  0  0
 13 16  1  0  0  0  0
 14 13  2  0  0  0  0
 15 10  2  0  0  0  0
 15 14  1  0  0  0  0
 16 17  1  0  0  0  0
 17 18  1  0  0  0  0
 18 19  1  0  0  0  0
 20 19  1  0  0  0  0
 20 23  1  0  0  0  0
 21 20  1  0  0  0  0
 22 17  1  0  0  0  0
 22 21  1  0  0  0  0
 23 24  1  0  0  0  0
 25 26  2  0  0  0  0
 25 35  1  0  0  0  0
 26 27  1  0  0  0  0
 27 29  1  0  0  0  0
 27 28  2  0  0  0  0
 28 30  1  0  0  0  0
 30 32  2  0  0  0  0
 31 28  1  0  0  0  0
 31 33  1  0  0  0  0
 32 34  1  0  0  0  0
 33 36  1  0  0  0  0
 33 32  1  0  0  0  0
 35 31  2  0  0  0  0
 36 37  1  0  0  0  0
 38 36  1  0  0  0  0
M  END
>  <MODEL>
21

>  <REMARK>
 VINA RESULT:    -8.369      3.397      9.883
 INTER + INTRA:         -12.670
 INTER:                 -11.692
 INTRA:                  -0.977
 UNBOUND:                -0.876
  7 active torsions:
  status: ('A' for Active; 'I' for Inactive)
    1  A    between atoms: N3_3  and  C15_15 
    2  A    between atoms: N4_4  and  C16_16 
    3  A    between atoms: N5_5  and  C19_19 
    4  A    between atoms: N8_8  and  C31_31 
    5  A    between atoms: N8_8  and  C35_35 
    6  A    between atoms: C15_15  and  C17_17 
    7  A    between atoms: C28_28  and  C34_34 

>  <TORSDO>
F 7

$$$$
all.pdbqt
 OpenBabel04112516173D

 38 42  0  0  0  0  0  0  0  0999 V2000
   63.8540   40.4320   51.4960 F   0  0  0  0  0  0  0  0  0  0  0  0
   62.4990   43.6270   51.4990 N   0  0  0  0  0  0  0  0  0  0  0  0
   61.3510   42.3590   50.1120 N   0  0  0  0  0  0  0  0  0  0  0  0
   63.3180   42.7190   51.8530 C   0  0  0  0  0  0  0  0  0  0  0  0
   61.5490   43.4820   50.6680 C   0  0  0  0  0  0  0  0  0  0  0  0
   63.1260   41.5130   51.2750 C   0  0  0  0  0  0  0  0  0  0  0  0
   62.1140   41.3990   50.4030 C   0  0  0  0  0  3  0  0  0  0  0  0
   60.7460   44.4140   50.3360 N   0  0  0  0  0  0  0  0  0  0  0  0
   59.7370   44.1170   50.3410 H   0  0  0  0  0  0  0  0  0  0  0  0
   60.9280   45.6300   50.0030 C   0  0  0  0  0  0  0  0  0  0  0  0
   61.4030   46.0270   48.8950 N   0  0  0  0  0  0  0  0  0  0  0  0
   61.5440   47.2620   48.6600 C   0  0  0  0  0  3  0  0  0  0  0  0
   61.2240   48.2450   49.5170 C   0  0  0  0  0  0  0  0  0  0  0  0
   60.7200   47.8520   50.6970 C   0  0  0  0  0  3  0  0  0  0  0  0
   60.5740   46.5400   50.9330 C   0  0  0  0  0  3  0  0  0  0  0  0
   61.4210   49.7010   49.1610 C   0  0  0  0  0  2  0  0  0  0  0  0
   62.8260   49.9850   48.8920 N   0  0  0  0  0  0  0  0  0  0  0  0
   63.6400   49.7820   50.0810 C   0  0  0  0  0  2  0  0  0  0  0  0
   65.1230   50.0500   49.7810 C   0  0  0  0  0  2  0  0  0  0  0  0
   65.3280   51.4070   49.2910 N   0  0  0  0  0  0  0  0  0  0  0  0
   64.5060   51.6170   48.1090 C   0  0  0  0  0  2  0  0  0  0  0  0
   63.0220   51.3420   48.4040 C   0  0  0  0  0  2  0  0  0  0  0  0
   66.7450   51.6570   49.0470 C   0  0  0  0  0  2  0  0  0  0  0  0
   67.6560   51.2820   50.2280 C   0  0  0  0  0  1  0  0  0  0  0  0
   64.2810   43.0480   52.7590 C   0  0  0  0  0  0  0  0  0  0  0  0
   64.4510   42.3120   53.8870 C   0  0  0  0  0  3  0  0  0  0  0  0
   65.3710   42.5730   54.8310 C   0  0  0  0  0  0  0  0  0  0  0  0
   66.1790   43.6240   54.6450 C   0  0  0  0  0  0  0  0  0  0  0  0
   65.4780   41.8150   55.9110 F   0  0  0  0  0  0  0  0  0  0  0  0
   67.1070   44.0700   55.3780 N   0  0  0  0  0  0  0  0  0  0  0  0
   66.0530   44.3730   53.5430 C   0  0  0  0  0  0  0  0  0  0  0  0
   67.5820   45.0840   54.7820 C   0  0  0  0  0  0  0  0  0  0  0  0
   66.9530   45.2540   53.6900 N   0  0  0  0  0  0  0  0  0  0  0  0
   68.6980   45.8290   55.4590 C   0  0  0  0  0  1  0  0  0  0  0  0
   65.1220   44.0990   52.6190 C   0  0  0  0  0  3  0  0  0  0  0  0
   67.2130   46.3370   52.7150 C   0  0  0  0  0  3  0  0  0  0  0  0
   68.5820   46.3050   52.0150 C   0  0  0  0  0  1  0  0  0  0  0  0
   66.9490   47.7060   53.3610 C   0  0  0  0  0  1  0  0  0  0  0  0
  2  4  1  0  0  0  0
  3  7  2  0  0  0  0
  3  5  1  0  0  0  0
  4 25  1  0  0  0  0
  5  2  2  0  0  0  0
  6  1  1  0  0  0  0
  6  4  2  0  0  0  0
  7  6  1  0  0  0  0
  8  9  1  0  0  0  0
  8  5  1  0  0  0  0
 10  8  1  0  0  0  0
 10 15  1  0  0  0  0
 11 10  2  0  0  0  0
 12 11  1  0  0  0  0
 12 13  2  0  0  0  0
 13 14  1  0  0  0  0
 14 15  2  0  0  0  0
 16 13  1  0  0  0  0
 17 16  1  0  0  0  0
 17 18  1  0  0  0  0
 19 18  1  0  0  0  0
 20 19  1  0  0  0  0
 21 22  1  0  0  0  0
 21 20  1  0  0  0  0
 22 17  1  0  0  0  0
 23 20  1  0  0  0  0
 23 24  1  0  0  0  0
 25 26  1  0  0  0  0
 26 27  2  0  0  0  0
 27 29  1  0  0  0  0
 28 27  1  0  0  0  0
 28 30  1  0  0  0  0
 31 33  1  0  0  0  0
 31 28  2  0  0  0  0
 32 30  2  0  0  0  0
 32 34  1  0  0  0  0
 33 32  1  0  0  0  0
 35 25  2  0  0  0  0
 35 31  1  0  0  0  0
 36 38  1  0  0  0  0
 36 33  1  0  0  0  0
 37 36  1  0  0  0  0
M  END
>  <MODEL>
22

>  <REMARK>
 VINA RESULT:    -8.364      3.741      8.730
 INTER + INTRA:         -12.664
 INTER:                 -11.329
 INTRA:                  -1.335
 UNBOUND:                -0.876
  7 active torsions:
  status: ('A' for Active; 'I' for Inactive)
    1  A    between atoms: N3_3  and  C15_15 
    2  A    between atoms: N4_4  and  C16_16 
    3  A    between atoms: N5_5  and  C19_19 
    4  A    between atoms: N8_8  and  C31_31 
    5  A    between atoms: N8_8  and  C35_35 
    6  A    between atoms: C15_15  and  C17_17 
    7  A    between atoms: C28_28  and  C34_34 

>  <TORSDO>
F 7

$$$$
all.pdbqt
 OpenBabel04112516173D

 38 42  0  0  0  0  0  0  0  0999 V2000
   56.1430   47.0420   49.5630 F   0  0  0  0  0  0  0  0  0  0  0  0
   59.0780   45.5170   50.6120 N   0  0  0  0  0  0  0  0  0  0  0  0
   59.5730   47.1570   49.2290 N   0  0  0  0  0  0  0  0  0  0  0  0
   57.8180   45.6840   50.5620 C   0  0  0  0  0  0  0  0  0  0  0  0
   59.9410   46.2080   49.9850 C   0  0  0  0  0  0  0  0  0  0  0  0
   57.4020   46.6910   49.7630 C   0  0  0  0  0  0  0  0  0  0  0  0
   58.3410   47.3970   49.1170 C   0  0  0  0  0  3  0  0  0  0  0  0
   61.1980   46.0130   50.0600 N   0  0  0  0  0  0  0  0  0  0  0  0
   61.4600   44.9970   50.1380 H   0  0  0  0  0  0  0  0  0  0  0  0
   62.1950   46.8060   50.0560 C   0  0  0  0  0  0  0  0  0  0  0  0
   62.8180   47.2010   49.0220 N   0  0  0  0  0  0  0  0  0  0  0  0
   63.8000   47.9920   49.1250 C   0  0  0  0  0  3  0  0  0  0  0  0
   64.2710   48.4790   50.2830 C   0  0  0  0  0  0  0  0  0  0  0  0
   63.6300   48.0770   51.3920 C   0  0  0  0  0  3  0  0  0  0  0  0
   62.5900   47.2390   51.2700 C   0  0  0  0  0  3  0  0  0  0  0  0
   65.4510   49.4250   50.3240 C   0  0  0  0  0  2  0  0  0  0  0  0
   65.2000   50.6040   49.5040 N   0  0  0  0  0  0  0  0  0  0  0  0
   66.3720   51.4640   49.4480 C   0  0  0  0  0  2  0  0  0  0  0  0
   66.1120   52.6870   48.5550 C   0  0  0  0  0  2  0  0  0  0  0  0
   64.9750   53.4620   49.0360 N   0  0  0  0  0  0  0  0  0  0  0  0
   63.8040   52.6020   49.1040 C   0  0  0  0  0  2  0  0  0  0  0  0
   64.0640   51.3720   49.9910 C   0  0  0  0  0  2  0  0  0  0  0  0
   64.7650   54.6400   48.1990 C   0  0  0  0  0  2  0  0  0  0  0  0
   63.3120   54.8200   47.7310 C   0  0  0  0  0  1  0  0  0  0  0  0
   57.0340   44.8500   51.3010 C   0  0  0  0  0  0  0  0  0  0  0  0
   56.7060   45.1610   52.5810 C   0  0  0  0  0  3  0  0  0  0  0  0
   55.9450   44.3900   53.3770 C   0  0  0  0  0  0  0  0  0  0  0  0
   55.4740   43.2440   52.8740 C   0  0  0  0  0  0  0  0  0  0  0  0
   55.6680   44.7540   54.6200 F   0  0  0  0  0  0  0  0  0  0  0  0
   54.7500   42.3600   53.4170 N   0  0  0  0  0  0  0  0  0  0  0  0
   55.7650   42.9000   51.6140 C   0  0  0  0  0  0  0  0  0  0  0  0
   54.5680   41.4570   52.5440 C   0  0  0  0  0  0  0  0  0  0  0  0
   55.1700   41.7880   51.4750 N   0  0  0  0  0  0  0  0  0  0  0  0
   53.7510   40.2610   52.9430 C   0  0  0  0  0  1  0  0  0  0  0  0
   56.5330   43.6800   50.8410 C   0  0  0  0  0  3  0  0  0  0  0  0
   55.1970   40.9910   50.2270 C   0  0  0  0  0  3  0  0  0  0  0  0
   53.8290   40.6270   49.6270 C   0  0  0  0  0  1  0  0  0  0  0  0
   56.0730   39.7430   50.4160 C   0  0  0  0  0  1  0  0  0  0  0  0
  1  6  1  0  0  0  0
  3  5  1  0  0  0  0
  4  2  1  0  0  0  0
  4 25  1  0  0  0  0
  5  8  1  0  0  0  0
  5  2  2  0  0  0  0
  6  4  2  0  0  0  0
  7  3  2  0  0  0  0
  7  6  1  0  0  0  0
  8  9  1  0  0  0  0
 10  8  1  0  0  0  0
 10 15  1  0  0  0  0
 11 12  1  0  0  0  0
 11 10  2  0  0  0  0
 12 13  2  0  0  0  0
 13 16  1  0  0  0  0
 13 14  1  0  0  0  0
 15 14  2  0  0  0  0
 17 22  1  0  0  0  0
 17 16  1  0  0  0  0
 18 17  1  0  0  0  0
 19 20  1  0  0  0  0
 19 18  1  0  0  0  0
 20 21  1  0  0  0  0
 21 22  1  0  0  0  0
 23 20  1  0  0  0  0
 24 23  1  0  0  0  0
 25 26  1  0  0  0  0
 26 27  2  0  0  0  0
 27 29  1  0  0  0  0
 28 27  1  0  0  0  0
 28 30  1  0  0  0  0
 31 28  2  0  0  0  0
 32 34  1  0  0  0  0
 32 30  2  0  0  0  0
 33 31  1  0  0  0  0
 33 32  1  0  0  0  0
 35 25  2  0  0  0  0
 35 31  1  0  0  0  0
 36 38  1  0  0  0  0
 36 33  1  0  0  0  0
 37 36  1  0  0  0  0
M  END
>  <MODEL>
23

>  <REMARK>
 VINA RESULT:    -8.364      3.694     11.321
 INTER + INTRA:         -12.663
 INTER:                 -11.682
 INTRA:                  -0.981
 UNBOUND:                -0.876
  7 active torsions:
  status: ('A' for Active; 'I' for Inactive)
    1  A    between atoms: N3_3  and  C15_15 
    2  A    between atoms: N4_4  and  C16_16 
    3  A    between atoms: N5_5  and  C19_19 
    4  A    between atoms: N8_8  and  C31_31 
    5  A    between atoms: N8_8  and  C35_35 
    6  A    between atoms: C15_15  and  C17_17 
    7  A    between atoms: C28_28  and  C34_34 

>  <TORSDO>
F 7

$$$$
all.pdbqt
 OpenBabel04112516173D

 38 42  0  0  0  0  0  0  0  0999 V2000
   59.7460   48.5170   48.5080 F   0  0  0  0  0  0  0  0  0  0  0  0
   61.8480   46.3880   50.2680 N   0  0  0  0  0  0  0  0  0  0  0  0
   59.8620   45.4540   50.0890 N   0  0  0  0  0  0  0  0  0  0  0  0
   61.5470   47.4500   49.6350 C   0  0  0  0  0  0  0  0  0  0  0  0
   61.0610   45.4170   50.4990 C   0  0  0  0  0  0  0  0  0  0  0  0
   60.2730   47.5120   49.1870 C   0  0  0  0  0  0  0  0  0  0  0  0
   59.4720   46.4690   49.4510 C   0  0  0  0  0  3  0  0  0  0  0  0
   61.3970   44.3660   51.1370 N   0  0  0  0  0  0  0  0  0  0  0  0
   60.5880   43.7270   51.3450 H   0  0  0  0  0  0  0  0  0  0  0  0
   62.5180   43.9400   51.5670 C   0  0  0  0  0  0  0  0  0  0  0  0
   63.1040   42.8850   51.1750 N   0  0  0  0  0  0  0  0  0  0  0  0
   64.2190   42.5470   51.6670 C   0  0  0  0  0  3  0  0  0  0  0  0
   64.8760   43.2330   52.6150 C   0  0  0  0  0  0  0  0  0  0  0  0
   64.2780   44.3540   53.0480 C   0  0  0  0  0  3  0  0  0  0  0  0
   63.0960   44.7010   52.5180 C   0  0  0  0  0  3  0  0  0  0  0  0
   66.2100   42.7640   53.1530 C   0  0  0  0  0  2  0  0  0  0  0  0
   67.2470   43.7590   52.9100 N   0  0  0  0  0  0  0  0  0  0  0  0
   68.1760   43.3100   51.8850 C   0  0  0  0  0  2  0  0  0  0  0  0
   69.2470   44.3780   51.6100 C   0  0  0  0  0  2  0  0  0  0  0  0
   69.9930   44.7030   52.8190 N   0  0  0  0  0  0  0  0  0  0  0  0
   69.0650   45.1420   53.8510 C   0  0  0  0  0  2  0  0  0  0  0  0
   67.9880   44.0780   54.1220 C   0  0  0  0  0  2  0  0  0  0  0  0
   71.0300   45.6910   52.5330 C   0  0  0  0  0  2  0  0  0  0  0  0
   70.6220   46.7360   51.4820 C   0  0  0  0  0  1  0  0  0  0  0  0
   62.5150   48.3950   49.4770 C   0  0  0  0  0  0  0  0  0  0  0  0
   62.3610   49.4020   48.5790 C   0  0  0  0  0  3  0  0  0  0  0  0
   63.2710   50.3660   48.3590 C   0  0  0  0  0  0  0  0  0  0  0  0
   64.4000   50.3370   49.0750 C   0  0  0  0  0  0  0  0  0  0  0  0
   63.0560   51.3170   47.4620 F   0  0  0  0  0  0  0  0  0  0  0  0
   65.3950   51.1190   49.0490 N   0  0  0  0  0  0  0  0  0  0  0  0
   64.5920   49.3670   49.9770 C   0  0  0  0  0  0  0  0  0  0  0  0
   66.2200   50.6800   49.9060 C   0  0  0  0  0  0  0  0  0  0  0  0
   65.7340   49.6430   50.4560 N   0  0  0  0  0  0  0  0  0  0  0  0
   67.5180   51.4210   50.0630 C   0  0  0  0  0  1  0  0  0  0  0  0
   63.6750   48.4110   50.1740 C   0  0  0  0  0  3  0  0  0  0  0  0
   66.4000   48.8410   51.5080 C   0  0  0  0  0  3  0  0  0  0  0  0
   66.6410   47.3590   51.1800 C   0  0  0  0  0  1  0  0  0  0  0  0
   65.6610   49.0040   52.8450 C   0  0  0  0  0  1  0  0  0  0  0  0
  1  6  1  0  0  0  0
  2  5  2  0  0  0  0
  3  5  1  0  0  0  0
  4  2  1  0  0  0  0
  5  8  1  0  0  0  0
  6  7  1  0  0  0  0
  6  4  2  0  0  0  0
  7  3  2  0  0  0  0
  8  9  1  0  0  0  0
  8 10  1  0  0  0  0
 10 15  1  0  0  0  0
 11 10  2  0  0  0  0
 11 12  1  0  0  0  0
 12 13  2  0  0  0  0
 13 14  1  0  0  0  0
 13 16  1  0  0  0  0
 15 14  2  0  0  0  0
 17 16  1  0  0  0  0
 17 22  1  0  0  0  0
 18 17  1  0  0  0  0
 19 18  1  0  0  0  0
 19 20  1  0  0  0  0
 20 21  1  0  0  0  0
 21 22  1  0  0  0  0
 23 20  1  0  0  0  0
 24 23  1  0  0  0  0
 25  4  1  0  0  0  0
 25 35  1  0  0  0  0
 26 25  2  0  0  0  0
 27 26  1  0  0  0  0
 27 28  2  0  0  0  0
 28 31  1  0  0  0  0
 29 27  1  0  0  0  0
 30 28  1  0  0  0  0
 30 32  2  0  0  0  0
 31 35  2  0  0  0  0
 31 33  1  0  0  0  0
 32 34  1  0  0  0  0
 32 33  1  0  0  0  0
 33 36  1  0  0  0  0
 36 38  1  0  0  0  0
 37 36  1  0  0  0  0
M  END
>  <MODEL>
24

>  <REMARK>
 VINA RESULT:    -8.348      3.292      7.402
 INTER + INTRA:         -12.640
 INTER:                 -11.403
 INTRA:                  -1.237
 UNBOUND:                -0.876
  7 active torsions:
  status: ('A' for Active; 'I' for Inactive)
    1  A    between atoms: N3_3  and  C15_15 
    2  A    between atoms: N4_4  and  C16_16 
    3  A    between atoms: N5_5  and  C19_19 
    4  A    between atoms: N8_8  and  C31_31 
    5  A    between atoms: N8_8  and  C35_35 
    6  A    between atoms: C15_15  and  C17_17 
    7  A    between atoms: C28_28  and  C34_34 

>  <TORSDO>
F 7

$$$$
all.pdbqt
 OpenBabel04112516173D

 38 42  0  0  0  0  0  0  0  0999 V2000
   65.1140   52.5690   48.2720 F   0  0  0  0  0  0  0  0  0  0  0  0
   65.8680   50.1820   50.6760 N   0  0  0  0  0  0  0  0  0  0  0  0
   67.7270   51.1760   50.0400 N   0  0  0  0  0  0  0  0  0  0  0  0
   65.0990   50.8480   49.9110 C   0  0  0  0  0  0  0  0  0  0  0  0
   67.1280   50.3200   50.7580 C   0  0  0  0  0  0  0  0  0  0  0  0
   65.7140   51.7690   49.1360 C   0  0  0  0  0  0  0  0  0  0  0  0
   67.0460   51.8840   49.2500 C   0  0  0  0  0  3  0  0  0  0  0  0
   67.8680   49.6350   51.5380 N   0  0  0  0  0  0  0  0  0  0  0  0
   68.5440   50.2210   52.0930 H   0  0  0  0  0  0  0  0  0  0  0  0
   67.9470   48.3870   51.7760 C   0  0  0  0  0  0  0  0  0  0  0  0
   67.0010   47.6570   52.2050 N   0  0  0  0  0  0  0  0  0  0  0  0
   67.1820   46.4220   52.4110 C   0  0  0  0  0  3  0  0  0  0  0  0
   68.3410   45.7760   52.2090 C   0  0  0  0  0  0  0  0  0  0  0  0
   69.3590   46.5240   51.7560 C   0  0  0  0  0  3  0  0  0  0  0  0
   69.1530   47.8320   51.5420 C   0  0  0  0  0  3  0  0  0  0  0  0
   68.4780   44.2930   52.4770 C   0  0  0  0  0  2  0  0  0  0  0  0
   69.5660   43.7210   51.6940 N   0  0  0  0  0  0  0  0  0  0  0  0
   69.0680   42.7460   50.7350 C   0  0  0  0  0  2  0  0  0  0  0  0
   70.2160   42.1730   49.8900 C   0  0  0  0  0  2  0  0  0  0  0  0
   71.2280   41.5430   50.7280 N   0  0  0  0  0  0  0  0  0  0  0  0
   71.7200   42.5120   51.6960 C   0  0  0  0  0  2  0  0  0  0  0  0
   70.5710   43.0940   52.5380 C   0  0  0  0  0  2  0  0  0  0  0  0
   72.2920   40.9710   49.9080 C   0  0  0  0  0  2  0  0  0  0  0  0
   71.7870   40.2490   48.6480 C   0  0  0  0  0  1  0  0  0  0  0  0
   63.7660   50.5720   49.9490 C   0  0  0  0  0  0  0  0  0  0  0  0
   62.8810   51.4890   50.4180 C   0  0  0  0  0  3  0  0  0  0  0  0
   61.5540   51.2920   50.4950 C   0  0  0  0  0  0  0  0  0  0  0  0
   61.0700   50.1170   50.0770 C   0  0  0  0  0  0  0  0  0  0  0  0
   60.7490   52.2310   50.9680 F   0  0  0  0  0  0  0  0  0  0  0  0
   59.8770   49.6970   50.0520 N   0  0  0  0  0  0  0  0  0  0  0  0
   61.9040   49.1850   49.6000 C   0  0  0  0  0  0  0  0  0  0  0  0
   59.9190   48.5230   49.5730 C   0  0  0  0  0  0  0  0  0  0  0  0
   61.1260   48.2280   49.3030 N   0  0  0  0  0  0  0  0  0  0  0  0
   58.6220   47.7740   49.4560 C   0  0  0  0  0  1  0  0  0  0  0  0
   63.2250   49.4010   49.5400 C   0  0  0  0  0  3  0  0  0  0  0  0
   61.5840   46.9420   48.7310 C   0  0  0  0  0  3  0  0  0  0  0  0
   61.0920   46.6190   47.3110 C   0  0  0  0  0  1  0  0  0  0  0  0
   61.2790   45.7920   49.7030 C   0  0  0  0  0  1  0  0  0  0  0  0
  1  6  1  0  0  0  0
  2  5  2  0  0  0  0
  3  5  1  0  0  0  0
  4 25  1  0  0  0  0
  4  2  1  0  0  0  0
  5  8  1  0  0  0  0
  6  7  1  0  0  0  0
  6  4  2  0  0  0  0
  7  3  2  0  0  0  0
  8 10  1  0  0  0  0
  8  9  1  0  0  0  0
 10 11  1  0  0  0  0
 11 12  2  0  0  0  0
 13 12  1  0  0  0  0
 13 16  1  0  0  0  0
 14 13  2  0  0  0  0
 15 14  1  0  0  0  0
 15 10  2  0  0  0  0
 17 16  1  0  0  0  0
 17 22  1  0  0  0  0
 18 17  1  0  0  0  0
 19 20  1  0  0  0  0
 19 18  1  0  0  0  0
 20 21  1  0  0  0  0
 21 22  1  0  0  0  0
 23 20  1  0  0  0  0
 24 23  1  0  0  0  0
 25 26  1  0  0  0  0
 26 27  2  0  0  0  0
 27 29  1  0  0  0  0
 28 27  1  0  0  0  0
 30 28  1  0  0  0  0
 31 28  2  0  0  0  0
 32 30  2  0  0  0  0
 33 32  1  0  0  0  0
 33 31  1  0  0  0  0
 34 32  1  0  0  0  0
 35 31  1  0  0  0  0
 35 25  2  0  0  0  0
 36 33  1  0  0  0  0
 36 38  1  0  0  0  0
 37 36  1  0  0  0  0
M  END
>  <MODEL>
25

>  <REMARK>
 VINA RESULT:    -8.346      4.131      8.487
 INTER + INTRA:         -12.638
 INTER:                 -11.575
 INTRA:                  -1.063
 UNBOUND:                -0.876
  7 active torsions:
  status: ('A' for Active; 'I' for Inactive)
    1  A    between atoms: N3_3  and  C15_15 
    2  A    between atoms: N4_4  and  C16_16 
    3  A    between atoms: N5_5  and  C19_19 
    4  A    between atoms: N8_8  and  C31_31 
    5  A    between atoms: N8_8  and  C35_35 
    6  A    between atoms: C15_15  and  C17_17 
    7  A    between atoms: C28_28  and  C34_34 

>  <TORSDO>
F 7

$$$$
all.pdbqt
 OpenBabel04112516173D

 38 42  0  0  0  0  0  0  0  0999 V2000
   65.2460   50.9490   49.8090 F   0  0  0  0  0  0  0  0  0  0  0  0
   63.3220   48.0650   49.9530 N   0  0  0  0  0  0  0  0  0  0  0  0
   62.5110   49.3950   48.3970 N   0  0  0  0  0  0  0  0  0  0  0  0
   64.2730   48.8370   50.2980 C   0  0  0  0  0  0  0  0  0  0  0  0
   62.4650   48.3070   49.0460 C   0  0  0  0  0  0  0  0  0  0  0  0
   64.3430   50.0030   49.6180 C   0  0  0  0  0  0  0  0  0  0  0  0
   63.4210   50.2230   48.6690 C   0  0  0  0  0  3  0  0  0  0  0  0
   61.5250   47.5090   48.7260 N   0  0  0  0  0  0  0  0  0  0  0  0
   61.5290   47.2460   47.7060 H   0  0  0  0  0  0  0  0  0  0  0  0
   60.5870   46.9680   49.3960 C   0  0  0  0  0  0  0  0  0  0  0  0
   60.5400   45.7480   49.7460 N   0  0  0  0  0  0  0  0  0  0  0  0
   59.5610   45.3070   50.4140 C   0  0  0  0  0  3  0  0  0  0  0  0
   58.5100   46.0430   50.8070 C   0  0  0  0  0  0  0  0  0  0  0  0
   58.5330   47.3370   50.4500 C   0  0  0  0  0  3  0  0  0  0  0  0
   59.5780   47.7920   49.7430 C   0  0  0  0  0  3  0  0  0  0  0  0
   57.3750   45.4410   51.6060 C   0  0  0  0  0  2  0  0  0  0  0  0
   56.7540   44.3410   50.8800 N   0  0  0  0  0  0  0  0  0  0  0  0
   55.4110   44.6910   50.4420 C   0  0  0  0  0  2  0  0  0  0  0  0
   54.7760   43.5390   49.6470 C   0  0  0  0  0  2  0  0  0  0  0  0
   54.7140   42.3190   50.4420 N   0  0  0  0  0  0  0  0  0  0  0  0
   56.0540   41.9720   50.8910 C   0  0  0  0  0  2  0  0  0  0  0  0
   56.6950   43.1270   51.6790 C   0  0  0  0  0  2  0  0  0  0  0  0
   54.0750   41.2460   49.6860 C   0  0  0  0  0  2  0  0  0  0  0  0
   53.9340   39.9300   50.4700 C   0  0  0  0  0  1  0  0  0  0  0  0
   65.1040   48.4200   51.2930 C   0  0  0  0  0  0  0  0  0  0  0  0
   65.9180   49.3000   51.9300 C   0  0  0  0  0  3  0  0  0  0  0  0
   66.7700   48.9680   52.9150 C   0  0  0  0  0  0  0  0  0  0  0  0
   66.8160   47.6880   53.2980 C   0  0  0  0  0  0  0  0  0  0  0  0
   67.5400   49.8800   53.4900 F   0  0  0  0  0  0  0  0  0  0  0  0
   67.5260   47.1350   54.1870 N   0  0  0  0  0  0  0  0  0  0  0  0
   66.0250   46.7860   52.7040 C   0  0  0  0  0  0  0  0  0  0  0  0
   67.2170   45.9040   54.1810 C   0  0  0  0  0  0  0  0  0  0  0  0
   66.3210   45.7060   53.3010 N   0  0  0  0  0  0  0  0  0  0  0  0
   67.9420   45.0010   55.1390 C   0  0  0  0  0  1  0  0  0  0  0  0
   65.1900   47.1380   51.7180 C   0  0  0  0  0  3  0  0  0  0  0  0
   65.7040   44.3970   52.9890 C   0  0  0  0  0  3  0  0  0  0  0  0
   64.7490   43.8290   54.0520 C   0  0  0  0  0  1  0  0  0  0  0  0
   66.7880   43.3770   52.6100 C   0  0  0  0  0  1  0  0  0  0  0  0
  2  4  1  0  0  0  0
  3  7  2  0  0  0  0
  3  5  1  0  0  0  0
  4 25  1  0  0  0  0
  5  2  2  0  0  0  0
  6  1  1  0  0  0  0
  6  4  2  0  0  0  0
  7  6  1  0  0  0  0
  8  5  1  0  0  0  0
  8 10  1  0  0  0  0
  9  8  1  0  0  0  0
 10 15  2  0  0  0  0
 10 11  1  0  0  0  0
 11 12  2  0  0  0  0
 12 13  1  0  0  0  0
 13 16  1  0  0  0  0
 14 13  2  0  0  0  0
 15 14  1  0  0  0  0
 17 16  1  0  0  0  0
 17 22  1  0  0  0  0
 18 17  1  0  0  0  0
 19 20  1  0  0  0  0
 19 18  1  0  0  0  0
 20 21  1  0  0  0  0
 21 22  1  0  0  0  0
 23 20  1  0  0  0  0
 23 24  1  0  0  0  0
 25 35  2  0  0  0  0
 25 26  1  0  0  0  0
 26 27  2  0  0  0  0
 27 28  1  0  0  0  0
 27 29  1  0  0  0  0
 28 30  1  0  0  0  0
 31 28  2  0  0  0  0
 31 33  1  0  0  0  0
 32 30  2  0  0  0  0
 32 34  1  0  0  0  0
 33 32  1  0  0  0  0
 35 31  1  0  0  0  0
 36 33  1  0  0  0  0
 36 37  1  0  0  0  0
 38 36  1  0  0  0  0
M  END
>  <MODEL>
26

>  <REMARK>
 VINA RESULT:    -8.324      2.327      5.510
 INTER + INTRA:         -12.606
 INTER:                 -11.750
 INTRA:                  -0.856
 UNBOUND:                -0.876
  7 active torsions:
  status: ('A' for Active; 'I' for Inactive)
    1  A    between atoms: N3_3  and  C15_15 
    2  A    between atoms: N4_4  and  C16_16 
    3  A    between atoms: N5_5  and  C19_19 
    4  A    between atoms: N8_8  and  C31_31 
    5  A    between atoms: N8_8  and  C35_35 
    6  A    between atoms: C15_15  and  C17_17 
    7  A    between atoms: C28_28  and  C34_34 

>  <TORSDO>
F 7

$$$$
all.pdbqt
 OpenBabel04112516173D

 38 42  0  0  0  0  0  0  0  0999 V2000
   60.0780   42.4470   54.6870 F   0  0  0  0  0  0  0  0  0  0  0  0
   58.5920   43.7090   51.8160 N   0  0  0  0  0  0  0  0  0  0  0  0
   60.7020   44.3350   51.8700 N   0  0  0  0  0  0  0  0  0  0  0  0
   58.6230   43.0610   52.9110 C   0  0  0  0  0  0  0  0  0  0  0  0
   59.5710   44.3270   51.2950 C   0  0  0  0  0  0  0  0  0  0  0  0
   59.8180   43.0550   53.5420 C   0  0  0  0  0  0  0  0  0  0  0  0
   60.8290   43.7190   52.9620 C   0  0  0  0  0  3  0  0  0  0  0  0
   59.5040   44.9660   50.1940 N   0  0  0  0  0  0  0  0  0  0  0  0
   58.8420   44.5340   49.5000 H   0  0  0  0  0  0  0  0  0  0  0  0
   60.0800   46.0210   49.7740 C   0  0  0  0  0  0  0  0  0  0  0  0
   61.0260   46.0580   48.9280 N   0  0  0  0  0  0  0  0  0  0  0  0
   61.5320   47.1620   48.5750 C   0  0  0  0  0  3  0  0  0  0  0  0
   61.1440   48.3620   49.0330 C   0  0  0  0  0  0  0  0  0  0  0  0
   60.1450   48.3530   49.9290 C   0  0  0  0  0  3  0  0  0  0  0  0
   59.6170   47.1750   50.2950 C   0  0  0  0  0  3  0  0  0  0  0  0
   61.7990   49.6400   48.5590 C   0  0  0  0  0  2  0  0  0  0  0  0
   63.2150   49.6590   48.9060 N   0  0  0  0  0  0  0  0  0  0  0  0
   63.4030   49.7940   50.3420 C   0  0  0  0  0  2  0  0  0  0  0  0
   64.8970   49.7780   50.7030 C   0  0  0  0  0  2  0  0  0  0  0  0
   65.6170   50.8490   50.0260 N   0  0  0  0  0  0  0  0  0  0  0  0
   65.4210   50.7230   48.5900 C   0  0  0  0  0  2  0  0  0  0  0  0
   63.9270   50.7310   48.2270 C   0  0  0  0  0  2  0  0  0  0  0  0
   67.0260   50.8430   50.4080 C   0  0  0  0  0  2  0  0  0  0  0  0
   67.8760   51.8890   49.6690 C   0  0  0  0  0  1  0  0  0  0  0  0
   57.4770   42.4540   53.3260 C   0  0  0  0  0  0  0  0  0  0  0  0
   56.9470   41.4200   52.6250 C   0  0  0  0  0  3  0  0  0  0  0  0
   55.8180   40.7730   52.9630 C   0  0  0  0  0  0  0  0  0  0  0  0
   55.1770   41.1700   54.0680 C   0  0  0  0  0  0  0  0  0  0  0  0
   55.3550   39.7730   52.2280 F   0  0  0  0  0  0  0  0  0  0  0  0
   54.1100   40.7300   54.5850 N   0  0  0  0  0  0  0  0  0  0  0  0
   55.6660   42.1810   54.7960 C   0  0  0  0  0  0  0  0  0  0  0  0
   53.8980   41.4280   55.6230 C   0  0  0  0  0  0  0  0  0  0  0  0
   54.8300   42.2850   55.7440 N   0  0  0  0  0  0  0  0  0  0  0  0
   52.6620   41.1260   56.4240 C   0  0  0  0  0  1  0  0  0  0  0  0
   56.7890   42.8170   54.4340 C   0  0  0  0  0  3  0  0  0  0  0  0
   54.9360   43.2850   56.8300 C   0  0  0  0  0  3  0  0  0  0  0  0
   55.0950   44.7490   56.3880 C   0  0  0  0  0  1  0  0  0  0  0  0
   56.0390   42.8780   57.8190 C   0  0  0  0  0  1  0  0  0  0  0  0
  2  4  1  0  0  0  0
  3  7  2  0  0  0  0
  4 25  1  0  0  0  0
  4  6  2  0  0  0  0
  5  2  2  0  0  0  0
  5  3  1  0  0  0  0
  6  1  1  0  0  0  0
  7  6  1  0  0  0  0
  8  5  1  0  0  0  0
  9  8  1  0  0  0  0
 10  8  1  0  0  0  0
 10 15  1  0  0  0  0
 11 10  2  0  0  0  0
 12 11  1  0  0  0  0
 12 13  2  0  0  0  0
 13 14  1  0  0  0  0
 14 15  2  0  0  0  0
 16 17  1  0  0  0  0
 16 13  1  0  0  0  0
 17 18  1  0  0  0  0
 18 19  1  0  0  0  0
 20 23  1  0  0  0  0
 20 19  1  0  0  0  0
 21 20  1  0  0  0  0
 22 21  1  0  0  0  0
 22 17  1  0  0  0  0
 24 23  1  0  0  0  0
 25 35  1  0  0  0  0
 26 27  1  0  0  0  0
 26 25  2  0  0  0  0
 27 28  2  0  0  0  0
 28 30  1  0  0  0  0
 28 31  1  0  0  0  0
 29 27  1  0  0  0  0
 30 32  2  0  0  0  0
 31 33  1  0  0  0  0
 32 33  1  0  0  0  0
 32 34  1  0  0  0  0
 33 36  1  0  0  0  0
 35 31  2  0  0  0  0
 36 38  1  0  0  0  0
 37 36  1  0  0  0  0
M  END
>  <MODEL>
27

>  <REMARK>
 VINA RESULT:    -8.321      3.709     11.512
 INTER + INTRA:         -12.603
 INTER:                 -11.612
 INTRA:                  -0.991
 UNBOUND:                -0.876
  7 active torsions:
  status: ('A' for Active; 'I' for Inactive)
    1  A    between atoms: N3_3  and  C15_15 
    2  A    between atoms: N4_4  and  C16_16 
    3  A    between atoms: N5_5  and  C19_19 
    4  A    between atoms: N8_8  and  C31_31 
    5  A    between atoms: N8_8  and  C35_35 
    6  A    between atoms: C15_15  and  C17_17 
    7  A    between atoms: C28_28  and  C34_34 

>  <TORSDO>
F 7

$$$$
all.pdbqt
 OpenBabel04112516173D

 38 42  0  0  0  0  0  0  0  0999 V2000
   65.3360   49.4570   53.3570 F   0  0  0  0  0  0  0  0  0  0  0  0
   67.7760   48.1330   51.2740 N   0  0  0  0  0  0  0  0  0  0  0  0
   67.5810   46.8570   53.0580 N   0  0  0  0  0  0  0  0  0  0  0  0
   66.8840   48.9730   51.6200 C   0  0  0  0  0  0  0  0  0  0  0  0
   68.1280   47.1120   51.9430 C   0  0  0  0  0  0  0  0  0  0  0  0
   66.2860   48.7210   52.8060 C   0  0  0  0  0  0  0  0  0  0  0  0
   66.6850   47.6350   53.4830 C   0  0  0  0  0  3  0  0  0  0  0  0
   69.0260   46.2900   51.5650 N   0  0  0  0  0  0  0  0  0  0  0  0
   68.7280   45.6910   50.7520 H   0  0  0  0  0  0  0  0  0  0  0  0
   70.2080   46.0550   51.9770 C   0  0  0  0  0  0  0  0  0  0  0  0
   70.5130   45.2920   52.9440 N   0  0  0  0  0  0  0  0  0  0  0  0
   71.7220   45.1250   53.2760 C   0  0  0  0  0  3  0  0  0  0  0  0
   72.7690   45.7090   52.6720 C   0  0  0  0  0  0  0  0  0  0  0  0
   72.4740   46.5220   51.6460 C   0  0  0  0  0  3  0  0  0  0  0  0
   71.1880   46.6910   51.3040 C   0  0  0  0  0  3  0  0  0  0  0  0
   74.1890   45.4570   53.1280 C   0  0  0  0  0  2  0  0  0  0  0  0
   74.2130   44.9360   54.4890 N   0  0  0  0  0  0  0  0  0  0  0  0
   74.7260   45.9280   55.4220 C   0  0  0  0  0  2  0  0  0  0  0  0
   74.7160   45.3830   56.8600 C   0  0  0  0  0  2  0  0  0  0  0  0
   75.5130   44.1690   56.9710 N   0  0  0  0  0  0  0  0  0  0  0  0
   75.0100   43.1780   56.0310 C   0  0  0  0  0  2  0  0  0  0  0  0
   75.0110   43.7230   54.5920 C   0  0  0  0  0  2  0  0  0  0  0  0
   75.5250   43.6860   58.3490 C   0  0  0  0  0  2  0  0  0  0  0  0
   75.8590   44.7700   59.3860 C   0  0  0  0  0  1  0  0  0  0  0  0
   66.6290   50.0150   50.7810 C   0  0  0  0  0  0  0  0  0  0  0  0
   67.6380   50.7990   50.3230 C   0  0  0  0  0  3  0  0  0  0  0  0
   67.4690   51.8470   49.5000 C   0  0  0  0  0  0  0  0  0  0  0  0
   66.2260   52.1350   49.0990 C   0  0  0  0  0  0  0  0  0  0  0  0
   68.5010   52.5730   49.0960 F   0  0  0  0  0  0  0  0  0  0  0  0
   65.8150   53.0590   48.3390 N   0  0  0  0  0  0  0  0  0  0  0  0
   65.2000   51.3850   49.5190 C   0  0  0  0  0  0  0  0  0  0  0  0
   64.5560   52.9260   48.2590 C   0  0  0  0  0  0  0  0  0  0  0  0
   64.1990   51.9260   48.9590 N   0  0  0  0  0  0  0  0  0  0  0  0
   63.8030   53.9250   47.4250 C   0  0  0  0  0  1  0  0  0  0  0  0
   65.3910   50.3490   50.3470 C   0  0  0  0  0  3  0  0  0  0  0  0
   62.8070   51.4500   49.1210 C   0  0  0  0  0  3  0  0  0  0  0  0
   62.2820   51.3720   50.5640 C   0  0  0  0  0  1  0  0  0  0  0  0
   62.6160   50.1140   48.3850 C   0  0  0  0  0  1  0  0  0  0  0  0
  2  4  1  0  0  0  0
  2  5  2  0  0  0  0
  3  7  2  0  0  0  0
  4  6  2  0  0  0  0
  5  3  1  0  0  0  0
  6  1  1  0  0  0  0
  6  7  1  0  0  0  0
  8  5  1  0  0  0  0
  8 10  1  0  0  0  0
  9  8  1  0  0  0  0
 10 11  1  0  0  0  0
 11 12  2  0  0  0  0
 13 16  1  0  0  0  0
 13 12  1  0  0  0  0
 14 13  2  0  0  0  0
 15 14  1  0  0  0  0
 15 10  2  0  0  0  0
 16 17  1  0  0  0  0
 17 22  1  0  0  0  0
 17 18  1  0  0  0  0
 18 19  1  0  0  0  0
 19 20  1  0  0  0  0
 20 23  1  0  0  0  0
 21 20  1  0  0  0  0
 22 21  1  0  0  0  0
 23 24  1  0  0  0  0
 25  4  1  0  0  0  0
 26 25  2  0  0  0  0
 27 26  1  0  0  0  0
 28 27  2  0  0  0  0
 28 31  1  0  0  0  0
 29 27  1  0  0  0  0
 30 28  1  0  0  0  0
 31 35  2  0  0  0  0
 32 30  2  0  0  0  0
 32 33  1  0  0  0  0
 33 36  1  0  0  0  0
 33 31  1  0  0  0  0
 34 32  1  0  0  0  0
 35 25  1  0  0  0  0
 36 37  1  0  0  0  0
 38 36  1  0  0  0  0
M  END
>  <MODEL>
28

>  <REMARK>
 VINA RESULT:    -8.300      5.382      9.891
 INTER + INTRA:         -12.573
 INTER:                 -11.546
 INTRA:                  -1.026
 UNBOUND:                -0.876
  7 active torsions:
  status: ('A' for Active; 'I' for Inactive)
    1  A    between atoms: N3_3  and  C15_15 
    2  A    between atoms: N4_4  and  C16_16 
    3  A    between atoms: N5_5  and  C19_19 
    4  A    between atoms: N8_8  and  C31_31 
    5  A    between atoms: N8_8  and  C35_35 
    6  A    between atoms: C15_15  and  C17_17 
    7  A    between atoms: C28_28  and  C34_34 

>  <TORSDO>
F 7

$$$$
all.pdbqt
 OpenBabel04112516173D

 38 42  0  0  0  0  0  0  0  0999 V2000
   67.8600   48.2410   53.7660 F   0  0  0  0  0  0  0  0  0  0  0  0
   65.4830   46.1610   52.3300 N   0  0  0  0  0  0  0  0  0  0  0  0
   66.4200   45.1190   54.0280 N   0  0  0  0  0  0  0  0  0  0  0  0
   66.1600   47.2320   52.4480 C   0  0  0  0  0  0  0  0  0  0  0  0
   65.5860   45.1350   53.0730 C   0  0  0  0  0  0  0  0  0  0  0  0
   67.0550   47.2380   53.4600 C   0  0  0  0  0  0  0  0  0  0  0  0
   67.1370   46.1380   54.2220 C   0  0  0  0  0  3  0  0  0  0  0  0
   64.8900   44.0780   52.9260 N   0  0  0  0  0  0  0  0  0  0  0  0
   65.4400   43.1920   53.0700 H   0  0  0  0  0  0  0  0  0  0  0  0
   63.6630   43.8860   52.6440 C   0  0  0  0  0  0  0  0  0  0  0  0
   62.6770   44.2850   53.3370 N   0  0  0  0  0  0  0  0  0  0  0  0
   61.4910   44.0420   52.9690 C   0  0  0  0  0  3  0  0  0  0  0  0
   61.1590   43.3670   51.8570 C   0  0  0  0  0  0  0  0  0  0  0  0
   62.1830   42.9340   51.1060 C   0  0  0  0  0  3  0  0  0  0  0  0
   63.4350   43.1980   51.5070 C   0  0  0  0  0  3  0  0  0  0  0  0
   59.7140   43.1190   51.4830 C   0  0  0  0  0  2  0  0  0  0  0  0
   58.8220   43.5120   52.5670 N   0  0  0  0  0  0  0  0  0  0  0  0
   58.2850   42.3470   53.2540 C   0  0  0  0  0  2  0  0  0  0  0  0
   57.3720   42.7680   54.4160 C   0  0  0  0  0  2  0  0  0  0  0  0
   56.2680   43.5970   53.9490 N   0  0  0  0  0  0  0  0  0  0  0  0
   56.8010   44.7570   53.2520 C   0  0  0  0  0  2  0  0  0  0  0  0
   57.7220   44.3380   52.0930 C   0  0  0  0  0  2  0  0  0  0  0  0
   55.3900   43.9570   55.0590 C   0  0  0  0  0  2  0  0  0  0  0  0
   55.0250   45.4500   55.1040 C   0  0  0  0  0  1  0  0  0  0  0  0
   65.9200   48.2390   51.5620 C   0  0  0  0  0  0  0  0  0  0  0  0
   66.8140   49.2480   51.4020 C   0  0  0  0  0  3  0  0  0  0  0  0
   66.6490   50.2790   50.5560 C   0  0  0  0  0  0  0  0  0  0  0  0
   65.5330   50.3120   49.8190 C   0  0  0  0  0  0  0  0  0  0  0  0
   67.5620   51.2340   50.4540 F   0  0  0  0  0  0  0  0  0  0  0  0
   65.1520   51.1660   48.9670 N   0  0  0  0  0  0  0  0  0  0  0  0
   64.6270   49.3340   49.9380 C   0  0  0  0  0  0  0  0  0  0  0  0
   64.0280   50.7670   48.5360 C   0  0  0  0  0  0  0  0  0  0  0  0
   63.7260   49.6760   49.1140 N   0  0  0  0  0  0  0  0  0  0  0  0
   63.3310   51.6240   47.5160 C   0  0  0  0  0  1  0  0  0  0  0  0
   64.8090   48.3200   50.7940 C   0  0  0  0  0  3  0  0  0  0  0  0
   62.4870   48.9000   48.8800 C   0  0  0  0  0  3  0  0  0  0  0  0
   61.4010   49.0150   49.9630 C   0  0  0  0  0  1  0  0  0  0  0  0
   62.8300   47.4310   48.5890 C   0  0  0  0  0  1  0  0  0  0  0  0
  2  4  1  0  0  0  0
  2  5  2  0  0  0  0
  3  7  2  0  0  0  0
  4  6  2  0  0  0  0
  5  3  1  0  0  0  0
  6  1  1  0  0  0  0
  6  7  1  0  0  0  0
  8  9  1  0  0  0  0
  8  5  1  0  0  0  0
 10  8  1  0  0  0  0
 10 11  1  0  0  0  0
 12 11  2  0  0  0  0
 13 12  1  0  0  0  0
 14 15  1  0  0  0  0
 14 13  2  0  0  0  0
 15 10  2  0  0  0  0
 16 13  1  0  0  0  0
 16 17  1  0  0  0  0
 17 18  1  0  0  0  0
 18 19  1  0  0  0  0
 20 19  1  0  0  0  0
 20 23  1  0  0  0  0
 21 20  1  0  0  0  0
 22 17  1  0  0  0  0
 22 21  1  0  0  0  0
 23 24  1  0  0  0  0
 25  4  1  0  0  0  0
 26 25  1  0  0  0  0
 27 26  2  0  0  0  0
 28 31  2  0  0  0  0
 28 27  1  0  0  0  0
 29 27  1  0  0  0  0
 30 28  1  0  0  0  0
 31 35  1  0  0  0  0
 32 30  2  0  0  0  0
 32 33  1  0  0  0  0
 33 31  1  0  0  0  0
 34 32  1  0  0  0  0
 35 25  2  0  0  0  0
 36 33  1  0  0  0  0
 36 37  1  0  0  0  0
 38 36  1  0  0  0  0
M  END
>  <MODEL>
29

>  <REMARK>
 VINA RESULT:    -8.293      1.573      1.991
 INTER + INTRA:         -12.562
 INTER:                 -11.676
 INTRA:                  -0.886
 UNBOUND:                -0.876
  7 active torsions:
  status: ('A' for Active; 'I' for Inactive)
    1  A    between atoms: N3_3  and  C15_15 
    2  A    between atoms: N4_4  and  C16_16 
    3  A    between atoms: N5_5  and  C19_19 
    4  A    between atoms: N8_8  and  C31_31 
    5  A    between atoms: N8_8  and  C35_35 
    6  A    between atoms: C15_15  and  C17_17 
    7  A    between atoms: C28_28  and  C34_34 

>  <TORSDO>
F 7

$$$$
all.pdbqt
 OpenBabel04112516173D

 38 42  0  0  0  0  0  0  0  0999 V2000
   67.8180   49.4990   53.4240 F   0  0  0  0  0  0  0  0  0  0  0  0
   65.5910   47.5600   51.6020 N   0  0  0  0  0  0  0  0  0  0  0  0
   66.3260   46.3920   53.3170 N   0  0  0  0  0  0  0  0  0  0  0  0
   66.2620   48.6090   51.8640 C   0  0  0  0  0  0  0  0  0  0  0  0
   65.6020   46.4860   52.2800 C   0  0  0  0  0  0  0  0  0  0  0  0
   67.0410   48.5330   52.9660 C   0  0  0  0  0  0  0  0  0  0  0  0
   67.0280   47.3830   53.6560 C   0  0  0  0  0  3  0  0  0  0  0  0
   64.9150   45.4530   51.9880 N   0  0  0  0  0  0  0  0  0  0  0  0
   64.7110   45.3640   50.9600 H   0  0  0  0  0  0  0  0  0  0  0  0
   64.4320   44.5110   52.6960 C   0  0  0  0  0  0  0  0  0  0  0  0
   63.3310   44.5530   53.3270 N   0  0  0  0  0  0  0  0  0  0  0  0
   62.9380   43.5600   54.0040 C   0  0  0  0  0  3  0  0  0  0  0  0
   63.6100   42.4050   54.1280 C   0  0  0  0  0  0  0  0  0  0  0  0
   64.7780   42.3330   53.4710 C   0  0  0  0  0  3  0  0  0  0  0  0
   65.1830   43.3930   52.7560 C   0  0  0  0  0  3  0  0  0  0  0  0
   63.0710   41.2600   54.9570 C   0  0  0  0  0  2  0  0  0  0  0  0
   63.6260   41.2890   56.3050 N   0  0  0  0  0  0  0  0  0  0  0  0
   64.7170   40.3360   56.4450 C   0  0  0  0  0  2  0  0  0  0  0  0
   65.3180   40.3960   57.8580 C   0  0  0  0  0  2  0  0  0  0  0  0
   64.3110   40.1200   58.8740 N   0  0  0  0  0  0  0  0  0  0  0  0
   63.2140   41.0640   58.7300 C   0  0  0  0  0  2  0  0  0  0  0  0
   62.6150   41.0110   57.3140 C   0  0  0  0  0  2  0  0  0  0  0  0
   64.9070   40.1440   60.2070 C   0  0  0  0  0  2  0  0  0  0  0  0
   66.3970   40.5230   60.2180 C   0  0  0  0  0  1  0  0  0  0  0  0
   66.1310   49.6760   51.0280 C   0  0  0  0  0  0  0  0  0  0  0  0
   67.2160   50.4000   50.6530 C   0  0  0  0  0  3  0  0  0  0  0  0
   67.1700   51.4680   49.8390 C   0  0  0  0  0  0  0  0  0  0  0  0
   65.9780   51.8400   49.3610 C   0  0  0  0  0  0  0  0  0  0  0  0
   68.2710   52.1320   49.5180 F   0  0  0  0  0  0  0  0  0  0  0  0
   65.6780   52.7990   48.5920 N   0  0  0  0  0  0  0  0  0  0  0  0
   64.8800   51.1510   49.6980 C   0  0  0  0  0  0  0  0  0  0  0  0
   64.4210   52.7480   48.4250 C   0  0  0  0  0  0  0  0  0  0  0  0
   63.9560   51.7630   49.0810 N   0  0  0  0  0  0  0  0  0  0  0  0
   63.7920   53.8040   47.5610 C   0  0  0  0  0  1  0  0  0  0  0  0
   64.9490   50.0940   50.5180 C   0  0  0  0  0  3  0  0  0  0  0  0
   62.5290   51.3750   49.1410 C   0  0  0  0  0  3  0  0  0  0  0  0
   61.8460   51.5160   50.5120 C   0  0  0  0  0  1  0  0  0  0  0  0
   62.3410   49.9620   48.5670 C   0  0  0  0  0  1  0  0  0  0  0  0
  2  4  1  0  0  0  0
  2  5  2  0  0  0  0
  3  7  2  0  0  0  0
  4  6  2  0  0  0  0
  5  3  1  0  0  0  0
  6  1  1  0  0  0  0
  6  7  1  0  0  0  0
  8  5  1  0  0  0  0
  8 10  1  0  0  0  0
  9  8  1  0  0  0  0
 10 15  2  0  0  0  0
 10 11  1  0  0  0  0
 11 12  2  0  0  0  0
 12 13  1  0  0  0  0
 13 16  1  0  0  0  0
 14 13  2  0  0  0  0
 15 14  1  0  0  0  0
 16 17  1  0  0  0  0
 17 18  1  0  0  0  0
 17 22  1  0  0  0  0
 18 19  1  0  0  0  0
 19 20  1  0  0  0  0
 20 23  1  0  0  0  0
 21 20  1  0  0  0  0
 22 21  1  0  0  0  0
 23 24  1  0  0  0  0
 25  4  1  0  0  0  0
 26 25  1  0  0  0  0
 27 26  2  0  0  0  0
 28 31  2  0  0  0  0
 28 27  1  0  0  0  0
 29 27  1  0  0  0  0
 30 28  1  0  0  0  0
 31 35  1  0  0  0  0
 32 30  2  0  0  0  0
 32 33  1  0  0  0  0
 33 36  1  0  0  0  0
 33 31  1  0  0  0  0
 34 32  1  0  0  0  0
 35 25  2  0  0  0  0
 36 37  1  0  0  0  0
 38 36  1  0  0  0  0
M  END
>  <MODEL>
30

>  <REMARK>
 VINA RESULT:    -8.278      3.833      4.941
 INTER + INTRA:         -12.542
 INTER:                 -11.816
 INTRA:                  -0.726
 UNBOUND:                -0.876
  7 active torsions:
  status: ('A' for Active; 'I' for Inactive)
    1  A    between atoms: N3_3  and  C15_15 
    2  A    between atoms: N4_4  and  C16_16 
    3  A    between atoms: N5_5  and  C19_19 
    4  A    between atoms: N8_8  and  C31_31 
    5  A    between atoms: N8_8  and  C35_35 
    6  A    between atoms: C15_15  and  C17_17 
    7  A    between atoms: C28_28  and  C34_34 

>  <TORSDO>
F 7

$$$$
all.pdbqt
 OpenBabel04112516173D

 38 42  0  0  0  0  0  0  0  0999 V2000
   58.9250   49.1810   49.7730 F   0  0  0  0  0  0  0  0  0  0  0  0
   60.8780   46.3240   50.0330 N   0  0  0  0  0  0  0  0  0  0  0  0
   58.7570   45.7650   50.2160 N   0  0  0  0  0  0  0  0  0  0  0  0
   60.6700   47.5710   49.8860 C   0  0  0  0  0  0  0  0  0  0  0  0
   59.9820   45.4380   50.1920 C   0  0  0  0  0  0  0  0  0  0  0  0
   59.3710   47.9440   49.9070 C   0  0  0  0  0  0  0  0  0  0  0  0
   58.4530   46.9810   50.0780 C   0  0  0  0  0  3  0  0  0  0  0  0
   60.2270   44.1960   50.3350 N   0  0  0  0  0  0  0  0  0  0  0  0
   59.5450   43.5750   49.8280 H   0  0  0  0  0  0  0  0  0  0  0  0
   61.1330   43.5640   50.9680 C   0  0  0  0  0  0  0  0  0  0  0  0
   62.0420   42.8530   50.4380 N   0  0  0  0  0  0  0  0  0  0  0  0
   62.8990   42.2620   51.1570 C   0  0  0  0  0  3  0  0  0  0  0  0
   62.9410   42.3180   52.4980 C   0  0  0  0  0  0  0  0  0  0  0  0
   61.9910   43.0620   53.0840 C   0  0  0  0  0  3  0  0  0  0  0  0
   61.0880   43.6840   52.3100 C   0  0  0  0  0  3  0  0  0  0  0  0
   64.0010   41.5840   53.2880 C   0  0  0  0  0  2  0  0  0  0  0  0
   64.8890   42.5220   53.9650 N   0  0  0  0  0  0  0  0  0  0  0  0
   65.4360   43.4950   53.0310 C   0  0  0  0  0  2  0  0  0  0  0  0
   66.3430   44.5010   53.7570 C   0  0  0  0  0  2  0  0  0  0  0  0
   67.4390   43.8280   54.4410 N   0  0  0  0  0  0  0  0  0  0  0  0
   66.8960   42.8460   55.3670 C   0  0  0  0  0  2  0  0  0  0  0  0
   65.9810   41.8430   54.6440 C   0  0  0  0  0  2  0  0  0  0  0  0
   68.3120   44.8000   55.0930 C   0  0  0  0  0  2  0  0  0  0  0  0
   67.8150   46.2510   54.9900 C   0  0  0  0  0  1  0  0  0  0  0  0
   61.7510   48.3840   49.7260 C   0  0  0  0  0  0  0  0  0  0  0  0
   61.7470   49.3660   48.7890 C   0  0  0  0  0  3  0  0  0  0  0  0
   62.7730   50.2040   48.5640 C   0  0  0  0  0  0  0  0  0  0  0  0
   63.8700   50.0660   49.3170 C   0  0  0  0  0  0  0  0  0  0  0  0
   62.7020   51.1370   47.6270 F   0  0  0  0  0  0  0  0  0  0  0  0
   64.9530   50.7200   49.2960 N   0  0  0  0  0  0  0  0  0  0  0  0
   63.9160   49.1170   50.2600 C   0  0  0  0  0  0  0  0  0  0  0  0
   65.6940   50.2200   50.1960 C   0  0  0  0  0  0  0  0  0  0  0  0
   65.0690   49.2710   50.7670 N   0  0  0  0  0  0  0  0  0  0  0  0
   67.0670   50.8030   50.3690 C   0  0  0  0  0  1  0  0  0  0  0  0
   62.8830   48.2870   50.4600 C   0  0  0  0  0  3  0  0  0  0  0  0
   65.6010   48.4370   51.8690 C   0  0  0  0  0  3  0  0  0  0  0  0
   66.2500   49.1950   53.0380 C   0  0  0  0  0  1  0  0  0  0  0  0
   66.5450   47.3610   51.3090 C   0  0  0  0  0  1  0  0  0  0  0  0
  1  6  1  0  0  0  0
  2  5  2  0  0  0  0
  4  6  2  0  0  0  0
  4  2  1  0  0  0  0
  5  3  1  0  0  0  0
  5  8  1  0  0  0  0
  6  7  1  0  0  0  0
  7  3  2  0  0  0  0
  8 10  1  0  0  0  0
  9  8  1  0  0  0  0
 10 15  1  0  0  0  0
 11 10  2  0  0  0  0
 11 12  1  0  0  0  0
 12 13  2  0  0  0  0
 13 14  1  0  0  0  0
 13 16  1  0  0  0  0
 15 14  2  0  0  0  0
 16 17  1  0  0  0  0
 17 22  1  0  0  0  0
 18 19  1  0  0  0  0
 18 17  1  0  0  0  0
 19 20  1  0  0  0  0
 20 23  1  0  0  0  0
 20 21  1  0  0  0  0
 22 21  1  0  0  0  0
 24 23  1  0  0  0  0
 25  4  1  0  0  0  0
 25 35  1  0  0  0  0
 26 25  2  0  0  0  0
 27 26  1  0  0  0  0
 27 28  2  0  0  0  0
 28 31  1  0  0  0  0
 29 27  1  0  0  0  0
 30 28  1  0  0  0  0
 30 32  2  0  0  0  0
 31 35  2  0  0  0  0
 31 33  1  0  0  0  0
 32 34  1  0  0  0  0
 32 33  1  0  0  0  0
 33 36  1  0  0  0  0
 36 37  1  0  0  0  0
 38 36  1  0  0  0  0
M  END
>  <MODEL>
31

>  <REMARK>
 VINA RESULT:    -8.242      3.088      6.700
 INTER + INTRA:         -12.491
 INTER:                 -11.152
 INTRA:                  -1.339
 UNBOUND:                -0.876
  7 active torsions:
  status: ('A' for Active; 'I' for Inactive)
    1  A    between atoms: N3_3  and  C15_15 
    2  A    between atoms: N4_4  and  C16_16 
    3  A    between atoms: N5_5  and  C19_19 
    4  A    between atoms: N8_8  and  C31_31 
    5  A    between atoms: N8_8  and  C35_35 
    6  A    between atoms: C15_15  and  C17_17 
    7  A    between atoms: C28_28  and  C34_34 

>  <TORSDO>
F 7

$$$$
all.pdbqt
 OpenBabel04112516173D

 38 42  0  0  0  0  0  0  0  0999 V2000
   59.9130   41.6360   52.0030 F   0  0  0  0  0  0  0  0  0  0  0  0
   59.4800   45.0360   51.4570 N   0  0  0  0  0  0  0  0  0  0  0  0
   61.2550   44.3490   50.3510 N   0  0  0  0  0  0  0  0  0  0  0  0
   59.1910   43.8990   51.9530 C   0  0  0  0  0  0  0  0  0  0  0  0
   60.4610   45.2780   50.6870 C   0  0  0  0  0  0  0  0  0  0  0  0
   60.0230   42.8920   51.6070 C   0  0  0  0  0  0  0  0  0  0  0  0
   61.0480   43.1870   50.7940 C   0  0  0  0  0  3  0  0  0  0  0  0
   60.7200   46.4300   50.2080 N   0  0  0  0  0  0  0  0  0  0  0  0
   59.9080   46.8630   49.6970 H   0  0  0  0  0  0  0  0  0  0  0  0
   61.7660   47.1560   50.2270 C   0  0  0  0  0  0  0  0  0  0  0  0
   62.2810   47.6800   51.2630 N   0  0  0  0  0  0  0  0  0  0  0  0
   63.3250   48.3880   51.1770 C   0  0  0  0  0  3  0  0  0  0  0  0
   63.9750   48.6540   50.0330 C   0  0  0  0  0  0  0  0  0  0  0  0
   63.4520   48.1130   48.9220 C   0  0  0  0  0  3  0  0  0  0  0  0
   62.3450   47.3640   49.0270 C   0  0  0  0  0  3  0  0  0  0  0  0
   65.2220   49.5100   50.0120 C   0  0  0  0  0  2  0  0  0  0  0  0
   64.9970   50.7380   49.2580 N   0  0  0  0  0  0  0  0  0  0  0  0
   66.1840   51.5780   49.2550 C   0  0  0  0  0  2  0  0  0  0  0  0
   65.9500   52.8540   48.4300 C   0  0  0  0  0  2  0  0  0  0  0  0
   64.8250   53.6210   48.9490 N   0  0  0  0  0  0  0  0  0  0  0  0
   63.6380   52.7800   48.9640 C   0  0  0  0  0  2  0  0  0  0  0  0
   63.8720   51.4980   49.7820 C   0  0  0  0  0  2  0  0  0  0  0  0
   64.6400   54.8470   48.1790 C   0  0  0  0  0  2  0  0  0  0  0  0
   63.1970   55.0690   47.6970 C   0  0  0  0  0  1  0  0  0  0  0  0
   58.0980   43.8160   52.7620 C   0  0  0  0  0  0  0  0  0  0  0  0
   57.0350   44.6390   52.5780 C   0  0  0  0  0  3  0  0  0  0  0  0
   55.9250   44.6240   53.3350 C   0  0  0  0  0  0  0  0  0  0  0  0
   55.8600   43.7360   54.3340 C   0  0  0  0  0  0  0  0  0  0  0  0
   54.9250   45.4610   53.1010 F   0  0  0  0  0  0  0  0  0  0  0  0
   54.9370   43.5320   55.1750 N   0  0  0  0  0  0  0  0  0  0  0  0
   56.8820   42.8990   54.5480 C   0  0  0  0  0  0  0  0  0  0  0  0
   55.3360   42.5890   55.9250 C   0  0  0  0  0  0  0  0  0  0  0  0
   56.4900   42.2160   55.5420 N   0  0  0  0  0  0  0  0  0  0  0  0
   54.4280   42.1590   57.0420 C   0  0  0  0  0  1  0  0  0  0  0  0
   57.9820   42.9370   53.7850 C   0  0  0  0  0  3  0  0  0  0  0  0
   57.2900   41.1390   56.1680 C   0  0  0  0  0  3  0  0  0  0  0  0
   58.6670   41.5490   56.7170 C   0  0  0  0  0  1  0  0  0  0  0  0
   57.4050   39.9410   55.2120 C   0  0  0  0  0  1  0  0  0  0  0  0
  2  4  1  0  0  0  0
  3  5  1  0  0  0  0
  3  7  2  0  0  0  0
  4 25  1  0  0  0  0
  5  2  2  0  0  0  0
  6  4  2  0  0  0  0
  6  1  1  0  0  0  0
  7  6  1  0  0  0  0
  8 10  1  0  0  0  0
  8  5  1  0  0  0  0
  9  8  1  0  0  0  0
 10 11  1  0  0  0  0
 12 11  2  0  0  0  0
 13 12  1  0  0  0  0
 14 15  1  0  0  0  0
 14 13  2  0  0  0  0
 15 10  2  0  0  0  0
 16 13  1  0  0  0  0
 17 22  1  0  0  0  0
 17 16  1  0  0  0  0
 18 17  1  0  0  0  0
 19 20  1  0  0  0  0
 19 18  1  0  0  0  0
 20 21  1  0  0  0  0
 21 22  1  0  0  0  0
 23 20  1  0  0  0  0
 24 23  1  0  0  0  0
 25 35  1  0  0  0  0
 26 25  2  0  0  0  0
 26 27  1  0  0  0  0
 27 28  2  0  0  0  0
 28 31  1  0  0  0  0
 28 30  1  0  0  0  0
 29 27  1  0  0  0  0
 30 32  2  0  0  0  0
 31 33  1  0  0  0  0
 32 34  1  0  0  0  0
 33 32  1  0  0  0  0
 33 36  1  0  0  0  0
 35 31  2  0  0  0  0
 36 37  1  0  0  0  0
 38 36  1  0  0  0  0
M  END
>  <MODEL>
32

>  <REMARK>
 VINA RESULT:    -8.210      3.550     11.194
 INTER + INTRA:         -12.445
 INTER:                 -11.725
 INTRA:                  -0.720
 UNBOUND:                -0.876
  7 active torsions:
  status: ('A' for Active; 'I' for Inactive)
    1  A    between atoms: N3_3  and  C15_15 
    2  A    between atoms: N4_4  and  C16_16 
    3  A    between atoms: N5_5  and  C19_19 
    4  A    between atoms: N8_8  and  C31_31 
    5  A    between atoms: N8_8  and  C35_35 
    6  A    between atoms: C15_15  and  C17_17 
    7  A    between atoms: C28_28  and  C34_34 

>  <TORSDO>
F 7

$$$$
all.pdbqt
 OpenBabel04112516173D

 38 42  0  0  0  0  0  0  0  0999 V2000
   59.9070   41.3120   51.8960 F   0  0  0  0  0  0  0  0  0  0  0  0
   59.3220   44.6160   51.0070 N   0  0  0  0  0  0  0  0  0  0  0  0
   61.3460   44.0420   50.3560 N   0  0  0  0  0  0  0  0  0  0  0  0
   59.0280   43.4880   51.5180 C   0  0  0  0  0  0  0  0  0  0  0  0
   60.4230   44.9070   50.4440 C   0  0  0  0  0  0  0  0  0  0  0  0
   59.9960   42.5480   51.4350 C   0  0  0  0  0  0  0  0  0  0  0  0
   61.1440   42.8930   50.8350 C   0  0  0  0  0  3  0  0  0  0  0  0
   60.6840   46.0490   49.9420 N   0  0  0  0  0  0  0  0  0  0  0  0
   59.9050   46.4310   49.3470 H   0  0  0  0  0  0  0  0  0  0  0  0
   61.7000   46.8140   50.0200 C   0  0  0  0  0  0  0  0  0  0  0  0
   62.1360   47.3520   51.0840 N   0  0  0  0  0  0  0  0  0  0  0  0
   63.1560   48.1000   51.0560 C   0  0  0  0  0  3  0  0  0  0  0  0
   63.8580   48.3940   49.9510 C   0  0  0  0  0  0  0  0  0  0  0  0
   63.4180   47.8380   48.8110 C   0  0  0  0  0  3  0  0  0  0  0  0
   62.3350   47.0470   48.8550 C   0  0  0  0  0  3  0  0  0  0  0  0
   65.0710   49.2960   50.0000 C   0  0  0  0  0  2  0  0  0  0  0  0
   64.8270   50.5350   49.2700 N   0  0  0  0  0  0  0  0  0  0  0  0
   66.0490   51.3140   49.1340 C   0  0  0  0  0  2  0  0  0  0  0  0
   65.7910   52.6010   48.3340 C   0  0  0  0  0  2  0  0  0  0  0  0
   64.7700   53.4240   48.9700 N   0  0  0  0  0  0  0  0  0  0  0  0
   63.5510   52.6440   49.1190 C   0  0  0  0  0  2  0  0  0  0  0  0
   63.8070   51.3510   49.9110 C   0  0  0  0  0  2  0  0  0  0  0  0
   64.5650   54.6590   48.2190 C   0  0  0  0  0  2  0  0  0  0  0  0
   63.1090   54.8840   47.7770 C   0  0  0  0  0  1  0  0  0  0  0  0
   57.7970   43.3450   52.0830 C   0  0  0  0  0  0  0  0  0  0  0  0
   57.4080   44.1470   53.1070 C   0  0  0  0  0  3  0  0  0  0  0  0
   56.2160   44.0660   53.7220 C   0  0  0  0  0  0  0  0  0  0  0  0
   55.3520   43.1380   53.2940 C   0  0  0  0  0  0  0  0  0  0  0  0
   55.9030   44.8790   54.7200 F   0  0  0  0  0  0  0  0  0  0  0  0
   54.1870   42.8670   53.7060 N   0  0  0  0  0  0  0  0  0  0  0  0
   55.6900   42.3300   52.2820 C   0  0  0  0  0  0  0  0  0  0  0  0
   53.7660   41.9070   52.9900 C   0  0  0  0  0  0  0  0  0  0  0  0
   54.6630   41.5980   52.1440 N   0  0  0  0  0  0  0  0  0  0  0  0
   52.3970   41.3660   53.2900 C   0  0  0  0  0  1  0  0  0  0  0  0
   56.8880   42.4240   51.6890 C   0  0  0  0  0  3  0  0  0  0  0  0
   54.5490   40.5230   51.1320 C   0  0  0  0  0  3  0  0  0  0  0  0
   55.6350   39.4360   51.1730 C   0  0  0  0  0  1  0  0  0  0  0  0
   54.4200   41.1310   49.7270 C   0  0  0  0  0  1  0  0  0  0  0  0
  2  4  1  0  0  0  0
  3  5  1  0  0  0  0
  3  7  2  0  0  0  0
  4 25  1  0  0  0  0
  5  2  2  0  0  0  0
  6  4  2  0  0  0  0
  6  1  1  0  0  0  0
  7  6  1  0  0  0  0
  8 10  1  0  0  0  0
  8  5  1  0  0  0  0
  9  8  1  0  0  0  0
 10 11  1  0  0  0  0
 12 11  2  0  0  0  0
 13 16  1  0  0  0  0
 13 12  1  0  0  0  0
 14 15  1  0  0  0  0
 14 13  2  0  0  0  0
 15 10  2  0  0  0  0
 17 22  1  0  0  0  0
 17 16  1  0  0  0  0
 18 17  1  0  0  0  0
 19 20  1  0  0  0  0
 19 18  1  0  0  0  0
 20 21  1  0  0  0  0
 21 22  1  0  0  0  0
 23 20  1  0  0  0  0
 24 23  1  0  0  0  0
 25 26  1  0  0  0  0
 26 27  2  0  0  0  0
 27 29  1  0  0  0  0
 28 30  1  0  0  0  0
 28 27  1  0  0  0  0
 31 28  2  0  0  0  0
 32 34  1  0  0  0  0
 32 30  2  0  0  0  0
 33 31  1  0  0  0  0
 33 32  1  0  0  0  0
 35 25  2  0  0  0  0
 35 31  1  0  0  0  0
 36 37  1  0  0  0  0
 36 33  1  0  0  0  0
 38 36  1  0  0  0  0
M  END
>  <MODEL>
33

>  <REMARK>
 VINA RESULT:    -8.209      3.619     11.278
 INTER + INTRA:         -12.444
 INTER:                 -11.473
 INTRA:                  -0.971
 UNBOUND:                -0.876
  7 active torsions:
  status: ('A' for Active; 'I' for Inactive)
    1  A    between atoms: N3_3  and  C15_15 
    2  A    between atoms: N4_4  and  C16_16 
    3  A    between atoms: N5_5  and  C19_19 
    4  A    between atoms: N8_8  and  C31_31 
    5  A    between atoms: N8_8  and  C35_35 
    6  A    between atoms: C15_15  and  C17_17 
    7  A    between atoms: C28_28  and  C34_34 

>  <TORSDO>
F 7

$$$$
all.pdbqt
 OpenBabel04112516173D

 38 42  0  0  0  0  0  0  0  0999 V2000
   60.6670   50.4140   50.1570 F   0  0  0  0  0  0  0  0  0  0  0  0
   61.9490   47.2010   49.8840 N   0  0  0  0  0  0  0  0  0  0  0  0
   59.7490   47.1020   49.8760 N   0  0  0  0  0  0  0  0  0  0  0  0
   62.0190   48.4670   49.9920 C   0  0  0  0  0  0  0  0  0  0  0  0
   60.8760   46.5230   49.8260 C   0  0  0  0  0  0  0  0  0  0  0  0
   60.8300   49.1070   50.0460 C   0  0  0  0  0  0  0  0  0  0  0  0
   59.7200   48.3580   49.9830 C   0  0  0  0  0  3  0  0  0  0  0  0
   60.8420   45.2540   49.7170 N   0  0  0  0  0  0  0  0  0  0  0  0
   60.6750   44.9230   48.7310 H   0  0  0  0  0  0  0  0  0  0  0  0
   60.9730   44.3120   50.5640 C   0  0  0  0  0  0  0  0  0  0  0  0
   61.5680   43.2100   50.3550 N   0  0  0  0  0  0  0  0  0  0  0  0
   61.6430   42.3350   51.2650 C   0  0  0  0  0  3  0  0  0  0  0  0
   61.1260   42.4680   52.4970 C   0  0  0  0  0  0  0  0  0  0  0  0
   60.4910   43.6230   52.7450 C   0  0  0  0  0  3  0  0  0  0  0  0
   60.4190   44.5430   51.7710 C   0  0  0  0  0  3  0  0  0  0  0  0
   61.2600   41.3740   53.5340 C   0  0  0  0  0  2  0  0  0  0  0  0
   60.4160   41.6490   54.6910 N   0  0  0  0  0  0  0  0  0  0  0  0
   61.1310   41.4000   55.9330 C   0  0  0  0  0  2  0  0  0  0  0  0
   60.2470   41.7250   57.1480 C   0  0  0  0  0  2  0  0  0  0  0  0
   59.0220   40.9360   57.1370 N   0  0  0  0  0  0  0  0  0  0  0  0
   58.3100   41.1740   55.8900 C   0  0  0  0  0  2  0  0  0  0  0  0
   59.1960   40.8570   54.6730 C   0  0  0  0  0  2  0  0  0  0  0  0
   58.2120   41.2280   58.3160 C   0  0  0  0  0  2  0  0  0  0  0  0
   56.8570   41.8800   57.9940 C   0  0  0  0  0  1  0  0  0  0  0  0
   63.2560   49.0360   50.0410 C   0  0  0  0  0  0  0  0  0  0  0  0
   64.2560   48.4600   50.7560 C   0  0  0  0  0  3  0  0  0  0  0  0
   65.4980   48.9600   50.8590 C   0  0  0  0  0  0  0  0  0  0  0  0
   65.7720   50.0970   50.2110 C   0  0  0  0  0  0  0  0  0  0  0  0
   66.4250   48.3460   51.5800 F   0  0  0  0  0  0  0  0  0  0  0  0
   66.8500   50.7580   50.1560 N   0  0  0  0  0  0  0  0  0  0  0  0
   64.8190   50.6960   49.4860 C   0  0  0  0  0  0  0  0  0  0  0  0
   66.6180   51.7640   49.4200 C   0  0  0  0  0  0  0  0  0  0  0  0
   65.4110   51.7180   49.0220 N   0  0  0  0  0  0  0  0  0  0  0  0
   67.7400   52.7410   49.2060 C   0  0  0  0  0  1  0  0  0  0  0  0
   63.5840   50.1840   49.4040 C   0  0  0  0  0  3  0  0  0  0  0  0
   64.7620   52.7180   48.1450 C   0  0  0  0  0  3  0  0  0  0  0  0
   64.8090   52.4280   46.6360 C   0  0  0  0  0  1  0  0  0  0  0  0
   65.2950   54.1240   48.4600 C   0  0  0  0  0  1  0  0  0  0  0  0
  2  4  1  0  0  0  0
  3  7  2  0  0  0  0
  4 25  1  0  0  0  0
  4  6  2  0  0  0  0
  5  3  1  0  0  0  0
  5  2  2  0  0  0  0
  6  1  1  0  0  0  0
  7  6  1  0  0  0  0
  8  5  1  0  0  0  0
  8 10  1  0  0  0  0
  9  8  1  0  0  0  0
 10 15  1  0  0  0  0
 11 10  2  0  0  0  0
 11 12  1  0  0  0  0
 12 13  2  0  0  0  0
 13 14  1  0  0  0  0
 13 16  1  0  0  0  0
 15 14  2  0  0  0  0
 16 17  1  0  0  0  0
 17 18  1  0  0  0  0
 18 19  1  0  0  0  0
 20 19  1  0  0  0  0
 20 23  1  0  0  0  0
 21 20  1  0  0  0  0
 22 17  1  0  0  0  0
 22 21  1  0  0  0  0
 24 23  1  0  0  0  0
 25 26  1  0  0  0  0
 26 27  2  0  0  0  0
 27 29  1  0  0  0  0
 28 27  1  0  0  0  0
 30 28  1  0  0  0  0
 31 28  2  0  0  0  0
 32 30  2  0  0  0  0
 33 32  1  0  0  0  0
 33 31  1  0  0  0  0
 34 32  1  0  0  0  0
 35 31  1  0  0  0  0
 35 25  2  0  0  0  0
 36 38  1  0  0  0  0
 36 33  1  0  0  0  0
 37 36  1  0  0  0  0
M  END
>  <MODEL>
34

>  <REMARK>
 VINA RESULT:    -8.179      2.923      4.459
 INTER + INTRA:         -12.402
 INTER:                 -11.920
 INTRA:                  -0.482
 UNBOUND:                -0.876
  7 active torsions:
  status: ('A' for Active; 'I' for Inactive)
    1  A    between atoms: N3_3  and  C15_15 
    2  A    between atoms: N4_4  and  C16_16 
    3  A    between atoms: N5_5  and  C19_19 
    4  A    between atoms: N8_8  and  C31_31 
    5  A    between atoms: N8_8  and  C35_35 
    6  A    between atoms: C15_15  and  C17_17 
    7  A    between atoms: C28_28  and  C34_34 

>  <TORSDO>
F 7

$$$$
all.pdbqt
 OpenBabel04112516173D

 38 42  0  0  0  0  0  0  0  0999 V2000
   60.7810   48.8170   48.0710 F   0  0  0  0  0  0  0  0  0  0  0  0
   62.4230   46.5030   50.0690 N   0  0  0  0  0  0  0  0  0  0  0  0
   60.4670   45.6840   49.4770 N   0  0  0  0  0  0  0  0  0  0  0  0
   62.2920   47.6070   49.4500 C   0  0  0  0  0  0  0  0  0  0  0  0
   61.5660   45.5650   50.0980 C   0  0  0  0  0  0  0  0  0  0  0  0
   61.1280   47.7560   48.7790 C   0  0  0  0  0  0  0  0  0  0  0  0
   60.2480   46.7450   48.8340 C   0  0  0  0  0  3  0  0  0  0  0  0
   61.7320   44.4700   50.7280 N   0  0  0  0  0  0  0  0  0  0  0  0
   61.1910   43.6660   50.3180 H   0  0  0  0  0  0  0  0  0  0  0  0
   62.4230   44.1610   51.7520 C   0  0  0  0  0  0  0  0  0  0  0  0
   63.6540   43.8510   51.7430 N   0  0  0  0  0  0  0  0  0  0  0  0
   64.2530   43.5580   52.8180 C   0  0  0  0  0  3  0  0  0  0  0  0
   63.6800   43.5430   54.0320 C   0  0  0  0  0  0  0  0  0  0  0  0
   62.3780   43.8660   54.0700 C   0  0  0  0  0  3  0  0  0  0  0  0
   61.7550   44.1750   52.9230 C   0  0  0  0  0  3  0  0  0  0  0  0
   64.4650   43.1830   55.2740 C   0  0  0  0  0  2  0  0  0  0  0  0
   63.7480   42.1980   56.0750 N   0  0  0  0  0  0  0  0  0  0  0  0
   63.9920   42.3960   57.4950 C   0  0  0  0  0  2  0  0  0  0  0  0
   63.2070   41.3760   58.3350 C   0  0  0  0  0  2  0  0  0  0  0  0
   63.5640   40.0090   57.9770 N   0  0  0  0  0  0  0  0  0  0  0  0
   63.3320   39.8100   56.5540 C   0  0  0  0  0  2  0  0  0  0  0  0
   64.1100   40.8360   55.7120 C   0  0  0  0  0  2  0  0  0  0  0  0
   62.8380   39.0540   58.8080 C   0  0  0  0  0  2  0  0  0  0  0  0
   61.9790   38.0590   58.0090 C   0  0  0  0  0  1  0  0  0  0  0  0
   63.3130   48.5060   49.5240 C   0  0  0  0  0  0  0  0  0  0  0  0
   64.3800   48.2770   50.3310 C   0  0  0  0  0  3  0  0  0  0  0  0
   65.4220   49.1150   50.4650 C   0  0  0  0  0  0  0  0  0  0  0  0
   65.4110   50.2460   49.7530 C   0  0  0  0  0  0  0  0  0  0  0  0
   66.4290   48.8290   51.2770 F   0  0  0  0  0  0  0  0  0  0  0  0
   66.2610   51.1820   49.7090 N   0  0  0  0  0  0  0  0  0  0  0  0
   64.3830   50.5110   48.9370 C   0  0  0  0  0  0  0  0  0  0  0  0
   65.8100   52.0410   48.8910 C   0  0  0  0  0  0  0  0  0  0  0  0
   64.6970   51.6320   48.4330 N   0  0  0  0  0  0  0  0  0  0  0  0
   66.6250   53.2840   48.6680 C   0  0  0  0  0  1  0  0  0  0  0  0
   63.3510   49.6640   48.8260 C   0  0  0  0  0  3  0  0  0  0  0  0
   63.8570   52.3580   47.4540 C   0  0  0  0  0  3  0  0  0  0  0  0
   64.3600   52.3590   46.0000 C   0  0  0  0  0  1  0  0  0  0  0  0
   63.5800   53.7850   47.9500 C   0  0  0  0  0  1  0  0  0  0  0  0
  1  6  1  0  0  0  0
  2  5  2  0  0  0  0
  3  5  1  0  0  0  0
  4 25  1  0  0  0  0
  4  2  1  0  0  0  0
  5  8  1  0  0  0  0
  6  7  1  0  0  0  0
  6  4  2  0  0  0  0
  7  3  2  0  0  0  0
  8 10  1  0  0  0  0
  9  8  1  0  0  0  0
 10 15  1  0  0  0  0
 11 10  2  0  0  0  0
 11 12  1  0  0  0  0
 12 13  2  0  0  0  0
 13 14  1  0  0  0  0
 13 16  1  0  0  0  0
 15 14  2  0  0  0  0
 16 17  1  0  0  0  0
 17 18  1  0  0  0  0
 18 19  1  0  0  0  0
 20 19  1  0  0  0  0
 20 23  1  0  0  0  0
 21 20  1  0  0  0  0
 22 17  1  0  0  0  0
 22 21  1  0  0  0  0
 24 23  1  0  0  0  0
 25 26  1  0  0  0  0
 26 27  2  0  0  0  0
 27 29  1  0  0  0  0
 28 27  1  0  0  0  0
 30 28  1  0  0  0  0
 31 28  2  0  0  0  0
 32 30  2  0  0  0  0
 33 32  1  0  0  0  0
 33 31  1  0  0  0  0
 34 32  1  0  0  0  0
 35 31  1  0  0  0  0
 35 25  2  0  0  0  0
 36 38  1  0  0  0  0
 36 33  1  0  0  0  0
 37 36  1  0  0  0  0
M  END
>  <MODEL>
35

>  <REMARK>
 VINA RESULT:    -8.148      3.826      5.523
 INTER + INTRA:         -12.358
 INTER:                 -11.538
 INTRA:                  -0.820
 UNBOUND:                -0.876
  7 active torsions:
  status: ('A' for Active; 'I' for Inactive)
    1  A    between atoms: N3_3  and  C15_15 
    2  A    between atoms: N4_4  and  C16_16 
    3  A    between atoms: N5_5  and  C19_19 
    4  A    between atoms: N8_8  and  C31_31 
    5  A    between atoms: N8_8  and  C35_35 
    6  A    between atoms: C15_15  and  C17_17 
    7  A    between atoms: C28_28  and  C34_34 

>  <TORSDO>
F 7

$$$$
all.pdbqt
 OpenBabel04112516173D

 38 42  0  0  0  0  0  0  0  0999 V2000
   43.2310   61.9470   71.9690 F   0  0  0  0  0  0  0  0  0  0  0  0
   41.6950   59.6790   74.0990 N   0  0  0  0  0  0  0  0  0  0  0  0
   43.1830   60.8390   75.2340 N   0  0  0  0  0  0  0  0  0  0  0  0
   41.9060   60.2560   72.9850 C   0  0  0  0  0  0  0  0  0  0  0  0
   42.2910   59.9380   75.1910 C   0  0  0  0  0  0  0  0  0  0  0  0
   42.8520   61.2210   73.0070 C   0  0  0  0  0  0  0  0  0  0  0  0
   43.4600   61.4660   74.1760 C   0  0  0  0  0  3  0  0  0  0  0  0
   42.0540   59.3400   76.2900 N   0  0  0  0  0  0  0  0  0  0  0  0
   41.0720   59.4860   76.6420 H   0  0  0  0  0  0  0  0  0  0  0  0
   42.7690   58.6020   77.0420 C   0  0  0  0  0  0  0  0  0  0  0  0
   43.4770   59.0080   78.0150 N   0  0  0  0  0  0  0  0  0  0  0  0
   44.1550   58.1910   78.7030 C   0  0  0  0  0  3  0  0  0  0  0  0
   44.2010   56.8670   78.4910 C   0  0  0  0  0  0  0  0  0  0  0  0
   43.4620   56.4110   77.4680 C   0  0  0  0  0  3  0  0  0  0  0  0
   42.7470   57.2870   76.7470 C   0  0  0  0  0  3  0  0  0  0  0  0
   45.0360   55.9540   79.3610 C   0  0  0  0  0  2  0  0  0  0  0  0
   46.0990   56.6980   80.0260 N   0  0  0  0  0  0  0  0  0  0  0  0
   47.3480   56.6050   79.2870 C   0  0  0  0  0  2  0  0  0  0  0  0
   48.4550   57.4200   79.9750 C   0  0  0  0  0  2  0  0  0  0  0  0
   48.6750   56.9650   81.3420 N   0  0  0  0  0  0  0  0  0  0  0  0
   47.4240   57.0460   82.0810 C   0  0  0  0  0  2  0  0  0  0  0  0
   46.3130   56.2370   81.3900 C   0  0  0  0  0  2  0  0  0  0  0  0
   49.7530   57.7230   81.9690 C   0  0  0  0  0  2  0  0  0  0  0  0
   50.8440   56.8460   82.6050 C   0  0  0  0  0  1  0  0  0  0  0  0
   41.1740   59.8530   71.9090 C   0  0  0  0  0  0  0  0  0  0  0  0
   41.4750   58.7010   71.2580 C   0  0  0  0  0  3  0  0  0  0  0  0
   40.8080   58.2380   70.1880 C   0  0  0  0  0  0  0  0  0  0  0  0
   39.7750   58.9570   69.7350 C   0  0  0  0  0  0  0  0  0  0  0  0
   41.1610   57.1050   69.5980 F   0  0  0  0  0  0  0  0  0  0  0  0
   39.0040   58.7370   68.7560 N   0  0  0  0  0  0  0  0  0  0  0  0
   39.4370   60.0970   70.3500 C   0  0  0  0  0  0  0  0  0  0  0  0
   38.1810   59.7020   68.7230 C   0  0  0  0  0  0  0  0  0  0  0  0
   38.4420   60.5020   69.6750 N   0  0  0  0  0  0  0  0  0  0  0  0
   37.1550   59.7010   67.6250 C   0  0  0  0  0  1  0  0  0  0  0  0
   40.1220   60.5430   71.4110 C   0  0  0  0  0  3  0  0  0  0  0  0
   37.7040   61.7520   69.9670 C   0  0  0  0  0  3  0  0  0  0  0  0
   38.5620   63.0020   70.2200 C   0  0  0  0  0  1  0  0  0  0  0  0
   36.7040   61.5210   71.1110 C   0  0  0  0  0  1  0  0  0  0  0  0
  1  6  1  0  0  0  0
  2  5  2  0  0  0  0
  4  6  2  0  0  0  0
  4  2  1  0  0  0  0
  5  3  1  0  0  0  0
  5  8  1  0  0  0  0
  6  7  1  0  0  0  0
  7  3  2  0  0  0  0
  8  9  1  0  0  0  0
  8 10  1  0  0  0  0
 10 11  1  0  0  0  0
 11 12  2  0  0  0  0
 13 12  1  0  0  0  0
 13 16  1  0  0  0  0
 14 13  2  0  0  0  0
 15 10  2  0  0  0  0
 15 14  1  0  0  0  0
 16 17  1  0  0  0  0
 17 22  1  0  0  0  0
 18 19  1  0  0  0  0
 18 17  1  0  0  0  0
 19 20  1  0  0  0  0
 20 23  1  0  0  0  0
 20 21  1  0  0  0  0
 22 21  1  0  0  0  0
 23 24  1  0  0  0  0
 25  4  1  0  0  0  0
 26 25  2  0  0  0  0
 27 26  1  0  0  0  0
 28 27  2  0  0  0  0
 28 31  1  0  0  0  0
 29 27  1  0  0  0  0
 30 28  1  0  0  0  0
 31 35  2  0  0  0  0
 32 30  2  0  0  0  0
 32 33  1  0  0  0  0
 33 36  1  0  0  0  0
 33 31  1  0  0  0  0
 34 32  1  0  0  0  0
 35 25  1  0  0  0  0
 36 37  1  0  0  0  0
 36 38  1  0  0  0  0
M  END
>  <MODEL>
36

>  <REMARK>
 VINA RESULT:    -8.145     31.499     33.953
 INTER + INTRA:         -12.354
 INTER:                 -11.325
 INTRA:                  -1.030
 UNBOUND:                -0.876
  7 active torsions:
  status: ('A' for Active; 'I' for Inactive)
    1  A    between atoms: N3_3  and  C15_15 
    2  A    between atoms: N4_4  and  C16_16 
    3  A    between atoms: N5_5  and  C19_19 
    4  A    between atoms: N8_8  and  C31_31 
    5  A    between atoms: N8_8  and  C35_35 
    6  A    between atoms: C15_15  and  C17_17 
    7  A    between atoms: C28_28  and  C34_34 

>  <TORSDO>
F 7

$$$$
all.pdbqt
 OpenBabel04112516173D

 38 42  0  0  0  0  0  0  0  0999 V2000
   63.0610   50.2630   48.8420 F   0  0  0  0  0  0  0  0  0  0  0  0
   64.9660   48.6930   51.2810 N   0  0  0  0  0  0  0  0  0  0  0  0
   66.1570   50.3000   50.3610 N   0  0  0  0  0  0  0  0  0  0  0  0
   63.9250   48.8850   50.5750 C   0  0  0  0  0  0  0  0  0  0  0  0
   66.0470   49.3550   51.1990 C   0  0  0  0  0  0  0  0  0  0  0  0
   64.0170   49.8890   49.6750 C   0  0  0  0  0  0  0  0  0  0  0  0
   65.1740   50.5640   49.6170 C   0  0  0  0  0  3  0  0  0  0  0  0
   67.0720   49.1350   51.9240 N   0  0  0  0  0  0  0  0  0  0  0  0
   67.7060   49.9700   52.0160 H   0  0  0  0  0  0  0  0  0  0  0  0
   67.4750   48.1060   52.5570 C   0  0  0  0  0  0  0  0  0  0  0  0
   67.1480   47.7960   53.7430 N   0  0  0  0  0  0  0  0  0  0  0  0
   67.6050   46.7490   54.2850 C   0  0  0  0  0  3  0  0  0  0  0  0
   68.4500   45.8890   53.6950 C   0  0  0  0  0  0  0  0  0  0  0  0
   68.8130   46.1930   52.4390 C   0  0  0  0  0  3  0  0  0  0  0  0
   68.3210   47.3070   51.8760 C   0  0  0  0  0  3  0  0  0  0  0  0
   68.9520   44.6540   54.4100 C   0  0  0  0  0  2  0  0  0  0  0  0
   67.8450   43.9020   54.9880 N   0  0  0  0  0  0  0  0  0  0  0  0
   68.3200   42.9370   55.9670 C   0  0  0  0  0  2  0  0  0  0  0  0
   67.1450   42.1710   56.5970 C   0  0  0  0  0  2  0  0  0  0  0  0
   66.3630   41.4760   55.5840 N   0  0  0  0  0  0  0  0  0  0  0  0
   65.8950   42.4370   54.5960 C   0  0  0  0  0  2  0  0  0  0  0  0
   67.0690   43.2100   53.9700 C   0  0  0  0  0  2  0  0  0  0  0  0
   65.2740   40.7240   56.2010 C   0  0  0  0  0  2  0  0  0  0  0  0
   64.9820   41.1310   57.6550 C   0  0  0  0  0  1  0  0  0  0  0  0
   62.8480   48.0800   50.7940 C   0  0  0  0  0  0  0  0  0  0  0  0
   62.9340   47.0230   51.6400 C   0  0  0  0  0  3  0  0  0  0  0  0
   61.9220   46.1790   51.9050 C   0  0  0  0  0  0  0  0  0  0  0  0
   60.7500   46.3970   51.2980 C   0  0  0  0  0  0  0  0  0  0  0  0
   62.0780   45.1620   52.7390 F   0  0  0  0  0  0  0  0  0  0  0  0
   59.6650   45.7520   51.3790 N   0  0  0  0  0  0  0  0  0  0  0  0
   60.6160   47.4330   50.4610 C   0  0  0  0  0  0  0  0  0  0  0  0
   58.8380   46.3410   50.6180 C   0  0  0  0  0  0  0  0  0  0  0  0
   59.4090   47.3410   50.0810 N   0  0  0  0  0  0  0  0  0  0  0  0
   57.4580   45.7570   50.5080 C   0  0  0  0  0  1  0  0  0  0  0  0
   61.6420   48.2570   50.2060 C   0  0  0  0  0  3  0  0  0  0  0  0
   58.7730   48.2780   49.1260 C   0  0  0  0  0  3  0  0  0  0  0  0
   57.3010   48.6260   49.3980 C   0  0  0  0  0  1  0  0  0  0  0  0
   58.9730   47.7810   47.6860 C   0  0  0  0  0  1  0  0  0  0  0  0
  1  6  1  0  0  0  0
  3  5  1  0  0  0  0
  4 25  1  0  0  0  0
  4  2  1  0  0  0  0
  5  2  2  0  0  0  0
  5  8  1  0  0  0  0
  6  4  2  0  0  0  0
  7  6  1  0  0  0  0
  7  3  2  0  0  0  0
  8  9  1  0  0  0  0
  8 10  1  0  0  0  0
 10 11  1  0  0  0  0
 11 12  2  0  0  0  0
 13 12  1  0  0  0  0
 13 16  1  0  0  0  0
 14 13  2  0  0  0  0
 15 14  1  0  0  0  0
 15 10  2  0  0  0  0
 16 17  1  0  0  0  0
 17 18  1  0  0  0  0
 18 19  1  0  0  0  0
 20 23  1  0  0  0  0
 20 19  1  0  0  0  0
 21 20  1  0  0  0  0
 22 21  1  0  0  0  0
 22 17  1  0  0  0  0
 23 24  1  0  0  0  0
 25 26  1  0  0  0  0
 26 27  2  0  0  0  0
 27 29  1  0  0  0  0
 28 30  1  0  0  0  0
 28 27  1  0  0  0  0
 31 28  2  0  0  0  0
 32 30  2  0  0  0  0
 33 31  1  0  0  0  0
 33 32  1  0  0  0  0
 34 32  1  0  0  0  0
 35 31  1  0  0  0  0
 35 25  2  0  0  0  0
 36 37  1  0  0  0  0
 36 33  1  0  0  0  0
 38 36  1  0  0  0  0
M  END
>  <MODEL>
37

>  <REMARK>
 VINA RESULT:    -8.111      3.484      7.527
 INTER + INTRA:         -12.306
 INTER:                 -11.469
 INTRA:                  -0.837
 UNBOUND:                -0.876
  7 active torsions:
  status: ('A' for Active; 'I' for Inactive)
    1  A    between atoms: N3_3  and  C15_15 
    2  A    between atoms: N4_4  and  C16_16 
    3  A    between atoms: N5_5  and  C19_19 
    4  A    between atoms: N8_8  and  C31_31 
    5  A    between atoms: N8_8  and  C35_35 
    6  A    between atoms: C15_15  and  C17_17 
    7  A    between atoms: C28_28  and  C34_34 

>  <TORSDO>
F 7

$$$$
all.pdbqt
 OpenBabel04112516173D

 38 42  0  0  0  0  0  0  0  0999 V2000
   70.1910   43.9020   55.2570 F   0  0  0  0  0  0  0  0  0  0  0  0
   68.0080   45.6510   53.2040 N   0  0  0  0  0  0  0  0  0  0  0  0
   67.8150   46.4010   55.2650 N   0  0  0  0  0  0  0  0  0  0  0  0
   68.9000   44.7820   53.4670 C   0  0  0  0  0  0  0  0  0  0  0  0
   67.4720   46.4390   54.0450 C   0  0  0  0  0  0  0  0  0  0  0  0
   69.2830   44.7250   54.7620 C   0  0  0  0  0  0  0  0  0  0  0  0
   68.6950   45.5710   55.6200 C   0  0  0  0  0  3  0  0  0  0  0  0
   66.5810   47.2990   53.7460 N   0  0  0  0  0  0  0  0  0  0  0  0
   66.0280   47.6330   54.5770 H   0  0  0  0  0  0  0  0  0  0  0  0
   66.2320   47.8310   52.6430 C   0  0  0  0  0  0  0  0  0  0  0  0
   66.7320   48.8850   52.1440 N   0  0  0  0  0  0  0  0  0  0  0  0
   66.3140   49.3350   51.0380 C   0  0  0  0  0  3  0  0  0  0  0  0
   65.3400   48.7750   50.3040 C   0  0  0  0  0  0  0  0  0  0  0  0
   64.7930   47.6580   50.8090 C   0  0  0  0  0  3  0  0  0  0  0  0
   65.2460   47.1920   51.9820 C   0  0  0  0  0  3  0  0  0  0  0  0
   64.8960   49.3730   48.9870 C   0  0  0  0  0  2  0  0  0  0  0  0
   64.7640   50.8210   49.0920 N   0  0  0  0  0  0  0  0  0  0  0  0
   63.4170   51.2520   48.7500 C   0  0  0  0  0  2  0  0  0  0  0  0
   63.2750   52.7760   48.8970 C   0  0  0  0  0  2  0  0  0  0  0  0
   64.2300   53.4800   48.0500 N   0  0  0  0  0  0  0  0  0  0  0  0
   65.5770   53.0430   48.3820 C   0  0  0  0  0  2  0  0  0  0  0  0
   65.7200   51.5170   48.2440 C   0  0  0  0  0  2  0  0  0  0  0  0
   64.0570   54.9240   48.1730 C   0  0  0  0  0  2  0  0  0  0  0  0
   62.7590   55.4520   47.5400 C   0  0  0  0  0  1  0  0  0  0  0  0
   69.3670   44.0180   52.4420 C   0  0  0  0  0  0  0  0  0  0  0  0
   68.5180   43.2740   51.6880 C   0  0  0  0  0  3  0  0  0  0  0  0
   68.8990   42.4900   50.6660 C   0  0  0  0  0  0  0  0  0  0  0  0
   70.2020   42.4420   50.3660 C   0  0  0  0  0  0  0  0  0  0  0  0
   68.0140   41.7870   49.9750 F   0  0  0  0  0  0  0  0  0  0  0  0
   70.8000   41.7870   49.4640 N   0  0  0  0  0  0  0  0  0  0  0  0
   71.0760   43.1650   51.0770 C   0  0  0  0  0  0  0  0  0  0  0  0
   72.0330   42.0650   49.5750 C   0  0  0  0  0  0  0  0  0  0  0  0
   72.1880   42.8880   50.5320 N   0  0  0  0  0  0  0  0  0  0  0  0
   72.9850   41.3920   48.6270 C   0  0  0  0  0  1  0  0  0  0  0  0
   70.6740   43.9330   52.0970 C   0  0  0  0  0  3  0  0  0  0  0  0
   73.4840   43.4490   50.9750 C   0  0  0  0  0  3  0  0  0  0  0  0
   74.3090   44.1790   49.9020 C   0  0  0  0  0  1  0  0  0  0  0  0
   74.3170   42.3670   51.6790 C   0  0  0  0  0  1  0  0  0  0  0  0
  2  4  1  0  0  0  0
  2  5  2  0  0  0  0
  3  7  2  0  0  0  0
  4  6  2  0  0  0  0
  5  3  1  0  0  0  0
  6  1  1  0  0  0  0
  6  7  1  0  0  0  0
  8  5  1  0  0  0  0
  8  9  1  0  0  0  0
 10  8  1  0  0  0  0
 11 10  1  0  0  0  0
 12 11  2  0  0  0  0
 13 14  2  0  0  0  0
 13 12  1  0  0  0  0
 14 15  1  0  0  0  0
 15 10  2  0  0  0  0
 16 17  1  0  0  0  0
 16 13  1  0  0  0  0
 18 19  1  0  0  0  0
 18 17  1  0  0  0  0
 20 23  1  0  0  0  0
 20 21  1  0  0  0  0
 20 19  1  0  0  0  0
 22 21  1  0  0  0  0
 22 17  1  0  0  0  0
 24 23  1  0  0  0  0
 25  4  1  0  0  0  0
 26 25  2  0  0  0  0
 27 26  1  0  0  0  0
 28 27  2  0  0  0  0
 28 31  1  0  0  0  0
 29 27  1  0  0  0  0
 30 32  2  0  0  0  0
 30 28  1  0  0  0  0
 31 35  2  0  0  0  0
 32 33  1  0  0  0  0
 33 36  1  0  0  0  0
 33 31  1  0  0  0  0
 34 32  1  0  0  0  0
 35 25  1  0  0  0  0
 36 38  1  0  0  0  0
 37 36  1  0  0  0  0
M  END
>  <MODEL>
38

>  <REMARK>
 VINA RESULT:    -8.096      5.338      9.828
 INTER + INTRA:         -12.285
 INTER:                 -11.213
 INTRA:                  -1.072
 UNBOUND:                -0.876
  7 active torsions:
  status: ('A' for Active; 'I' for Inactive)
    1  A    between atoms: N3_3  and  C15_15 
    2  A    between atoms: N4_4  and  C16_16 
    3  A    between atoms: N5_5  and  C19_19 
    4  A    between atoms: N8_8  and  C31_31 
    5  A    between atoms: N8_8  and  C35_35 
    6  A    between atoms: C15_15  and  C17_17 
    7  A    between atoms: C28_28  and  C34_34 

>  <TORSDO>
F 7

$$$$
all.pdbqt
 OpenBabel04112516173D

 38 42  0  0  0  0  0  0  0  0999 V2000
   62.3370   50.1660   48.0690 F   0  0  0  0  0  0  0  0  0  0  0  0
   63.8740   48.9720   50.9430 N   0  0  0  0  0  0  0  0  0  0  0  0
   65.1770   50.4750   49.9990 N   0  0  0  0  0  0  0  0  0  0  0  0
   62.9450   49.0470   50.0750 C   0  0  0  0  0  0  0  0  0  0  0  0
   64.9520   49.6450   50.9310 C   0  0  0  0  0  0  0  0  0  0  0  0
   63.1630   49.9270   49.0730 C   0  0  0  0  0  0  0  0  0  0  0  0
   64.3120   50.6170   49.0940 C   0  0  0  0  0  3  0  0  0  0  0  0
   65.8610   49.5460   51.8180 N   0  0  0  0  0  0  0  0  0  0  0  0
   66.0800   50.4580   52.2950 H   0  0  0  0  0  0  0  0  0  0  0  0
   66.5510   48.5610   52.2380 C   0  0  0  0  0  0  0  0  0  0  0  0
   66.6680   48.2090   53.4520 N   0  0  0  0  0  0  0  0  0  0  0  0
   67.3810   47.2130   53.7680 C   0  0  0  0  0  3  0  0  0  0  0  0
   68.0620   46.4530   52.8960 C   0  0  0  0  0  0  0  0  0  0  0  0
   67.9570   46.8040   51.6050 C   0  0  0  0  0  3  0  0  0  0  0  0
   67.1970   47.8620   51.2840 C   0  0  0  0  0  3  0  0  0  0  0  0
   68.8930   45.2740   53.3530 C   0  0  0  0  0  2  0  0  0  0  0  0
   69.9970   45.0290   52.4330 N   0  0  0  0  0  0  0  0  0  0  0  0
   70.0970   43.6170   52.0960 C   0  0  0  0  0  2  0  0  0  0  0  0
   71.2420   43.3720   51.1000 C   0  0  0  0  0  2  0  0  0  0  0  0
   72.5180   43.8240   51.6390 N   0  0  0  0  0  0  0  0  0  0  0  0
   72.4180   45.2340   51.9870 C   0  0  0  0  0  2  0  0  0  0  0  0
   71.2680   45.4830   52.9780 C   0  0  0  0  0  2  0  0  0  0  0  0
   73.6000   43.5500   50.6970 C   0  0  0  0  0  2  0  0  0  0  0  0
   73.4930   44.3360   49.3790 C   0  0  0  0  0  1  0  0  0  0  0  0
   61.8520   48.2510   50.2410 C   0  0  0  0  0  0  0  0  0  0  0  0
   60.6060   48.7230   49.9830 C   0  0  0  0  0  3  0  0  0  0  0  0
   59.4790   48.0060   50.1280 C   0  0  0  0  0  0  0  0  0  0  0  0
   59.5910   46.7410   50.5480 C   0  0  0  0  0  0  0  0  0  0  0  0
   58.2930   48.5330   49.8620 F   0  0  0  0  0  0  0  0  0  0  0  0
   58.6920   45.8770   50.7620 N   0  0  0  0  0  0  0  0  0  0  0  0
   60.8010   46.2300   50.8070 C   0  0  0  0  0  0  0  0  0  0  0  0
   59.2870   44.8270   51.1520 C   0  0  0  0  0  0  0  0  0  0  0  0
   60.5400   45.0430   51.1710 N   0  0  0  0  0  0  0  0  0  0  0  0
   58.4380   43.6370   51.5030 C   0  0  0  0  0  1  0  0  0  0  0  0
   61.9100   46.9670   50.6640 C   0  0  0  0  0  3  0  0  0  0  0  0
   61.5710   44.0600   51.5740 C   0  0  0  0  0  3  0  0  0  0  0  0
   61.6020   42.7460   50.7750 C   0  0  0  0  0  1  0  0  0  0  0  0
   61.4860   43.7930   53.0840 C   0  0  0  0  0  1  0  0  0  0  0  0
  1  6  1  0  0  0  0
  3  5  1  0  0  0  0
  4 25  1  0  0  0  0
  4  2  1  0  0  0  0
  5  2  2  0  0  0  0
  5  8  1  0  0  0  0
  6  7  1  0  0  0  0
  6  4  2  0  0  0  0
  7  3  2  0  0  0  0
  8 10  1  0  0  0  0
  8  9  1  0  0  0  0
 10 11  1  0  0  0  0
 11 12  2  0  0  0  0
 13 16  1  0  0  0  0
 13 12  1  0  0  0  0
 14 13  2  0  0  0  0
 15 14  1  0  0  0  0
 15 10  2  0  0  0  0
 17 22  1  0  0  0  0
 17 16  1  0  0  0  0
 18 17  1  0  0  0  0
 19 20  1  0  0  0  0
 19 18  1  0  0  0  0
 20 21  1  0  0  0  0
 21 22  1  0  0  0  0
 23 20  1  0  0  0  0
 24 23  1  0  0  0  0
 25 35  1  0  0  0  0
 26 27  1  0  0  0  0
 26 25  2  0  0  0  0
 27 28  2  0  0  0  0
 28 30  1  0  0  0  0
 28 31  1  0  0  0  0
 29 27  1  0  0  0  0
 30 32  2  0  0  0  0
 31 33  1  0  0  0  0
 32 33  1  0  0  0  0
 32 34  1  0  0  0  0
 33 36  1  0  0  0  0
 35 31  2  0  0  0  0
 36 38  1  0  0  0  0
 37 36  1  0  0  0  0
M  END
>  <MODEL>
39

>  <REMARK>
 VINA RESULT:    -8.094      3.895      9.617
 INTER + INTRA:         -12.282
 INTER:                 -11.176
 INTRA:                  -1.107
 UNBOUND:                -0.876
  7 active torsions:
  status: ('A' for Active; 'I' for Inactive)
    1  A    between atoms: N3_3  and  C15_15 
    2  A    between atoms: N4_4  and  C16_16 
    3  A    between atoms: N5_5  and  C19_19 
    4  A    between atoms: N8_8  and  C31_31 
    5  A    between atoms: N8_8  and  C35_35 
    6  A    between atoms: C15_15  and  C17_17 
    7  A    between atoms: C28_28  and  C34_34 

>  <TORSDO>
F 7

$$$$
all.pdbqt
 OpenBabel04112516173D

 38 42  0  0  0  0  0  0  0  0999 V2000
   61.7260   48.0280   48.0410 F   0  0  0  0  0  0  0  0  0  0  0  0
   62.8060   47.2760   51.2520 N   0  0  0  0  0  0  0  0  0  0  0  0
   61.1330   45.9460   50.7250 N   0  0  0  0  0  0  0  0  0  0  0  0
   62.8190   47.9090   50.1480 C   0  0  0  0  0  0  0  0  0  0  0  0
   62.0110   46.3330   51.5540 C   0  0  0  0  0  0  0  0  0  0  0  0
   61.8920   47.5130   49.2470 C   0  0  0  0  0  0  0  0  0  0  0  0
   61.0700   46.5150   49.6020 C   0  0  0  0  0  3  0  0  0  0  0  0
   62.0270   45.7200   52.6710 N   0  0  0  0  0  0  0  0  0  0  0  0
   61.3820   46.1410   53.3890 H   0  0  0  0  0  0  0  0  0  0  0  0
   62.6670   44.6990   53.0850 C   0  0  0  0  0  0  0  0  0  0  0  0
   63.7430   44.2510   52.5830 N   0  0  0  0  0  0  0  0  0  0  0  0
   64.3030   43.2260   53.0690 C   0  0  0  0  0  3  0  0  0  0  0  0
   63.8440   42.5310   54.1200 C   0  0  0  0  0  0  0  0  0  0  0  0
   62.7060   42.9830   54.6710 C   0  0  0  0  0  3  0  0  0  0  0  0
   62.1230   44.0710   54.1460 C   0  0  0  0  0  3  0  0  0  0  0  0
   64.5730   41.3140   54.6450 C   0  0  0  0  0  2  0  0  0  0  0  0
   64.6560   41.3450   56.1010 N   0  0  0  0  0  0  0  0  0  0  0  0
   65.9900   41.7220   56.5430 C   0  0  0  0  0  2  0  0  0  0  0  0
   66.0610   41.7860   58.0770 C   0  0  0  0  0  2  0  0  0  0  0  0
   65.7040   40.5080   58.6770 N   0  0  0  0  0  0  0  0  0  0  0  0
   64.3740   40.1220   58.2280 C   0  0  0  0  0  2  0  0  0  0  0  0
   64.2990   40.0650   56.6930 C   0  0  0  0  0  2  0  0  0  0  0  0
   65.8120   40.5750   60.1320 C   0  0  0  0  0  2  0  0  0  0  0  0
   67.0960   41.2570   60.6310 C   0  0  0  0  0  1  0  0  0  0  0  0
   63.7430   48.8970   49.9890 C   0  0  0  0  0  0  0  0  0  0  0  0
   64.9300   48.8470   50.6450 C   0  0  0  0  0  3  0  0  0  0  0  0
   65.8900   49.7830   50.5480 C   0  0  0  0  0  0  0  0  0  0  0  0
   65.6640   50.8310   49.7480 C   0  0  0  0  0  0  0  0  0  0  0  0
   67.0250   49.6720   51.2220 F   0  0  0  0  0  0  0  0  0  0  0  0
   66.3990   51.8290   49.4960 N   0  0  0  0  0  0  0  0  0  0  0  0
   64.5100   50.9180   49.0750 C   0  0  0  0  0  0  0  0  0  0  0  0
   65.7530   52.5560   48.6820 C   0  0  0  0  0  0  0  0  0  0  0  0
   64.6340   52.0060   48.4330 N   0  0  0  0  0  0  0  0  0  0  0  0
   66.3970   53.8370   48.2310 C   0  0  0  0  0  1  0  0  0  0  0  0
   63.5640   49.9770   49.1940 C   0  0  0  0  0  3  0  0  0  0  0  0
   63.5950   52.5510   47.5300 C   0  0  0  0  0  3  0  0  0  0  0  0
   63.7710   52.2450   46.0330 C   0  0  0  0  0  1  0  0  0  0  0  0
   63.4190   54.0570   47.7740 C   0  0  0  0  0  1  0  0  0  0  0  0
  1  6  1  0  0  0  0
  2  5  2  0  0  0  0
  3  5  1  0  0  0  0
  4  2  1  0  0  0  0
  5  8  1  0  0  0  0
  6  7  1  0  0  0  0
  6  4  2  0  0  0  0
  7  3  2  0  0  0  0
  8 10  1  0  0  0  0
  8  9  1  0  0  0  0
 10 15  1  0  0  0  0
 11 12  1  0  0  0  0
 11 10  2  0  0  0  0
 12 13  2  0  0  0  0
 13 16  1  0  0  0  0
 13 14  1  0  0  0  0
 15 14  2  0  0  0  0
 16 17  1  0  0  0  0
 17 18  1  0  0  0  0
 17 22  1  0  0  0  0
 18 19  1  0  0  0  0
 19 20  1  0  0  0  0
 20 23  1  0  0  0  0
 21 20  1  0  0  0  0
 22 21  1  0  0  0  0
 23 24  1  0  0  0  0
 25  4  1  0  0  0  0
 25 26  1  0  0  0  0
 27 26  2  0  0  0  0
 27 29  1  0  0  0  0
 28 27  1  0  0  0  0
 30 28  1  0  0  0  0
 31 35  1  0  0  0  0
 31 28  2  0  0  0  0
 32 30  2  0  0  0  0
 33 32  1  0  0  0  0
 33 31  1  0  0  0  0
 34 32  1  0  0  0  0
 35 25  2  0  0  0  0
 36 38  1  0  0  0  0
 36 33  1  0  0  0  0
 37 36  1  0  0  0  0
M  END
>  <MODEL>
40

>  <REMARK>
 VINA RESULT:    -8.082      4.138      6.033
 INTER + INTRA:         -12.265
 INTER:                 -11.546
 INTRA:                  -0.720
 UNBOUND:                -0.876
  7 active torsions:
  status: ('A' for Active; 'I' for Inactive)
    1  A    between atoms: N3_3  and  C15_15 
    2  A    between atoms: N4_4  and  C16_16 
    3  A    between atoms: N5_5  and  C19_19 
    4  A    between atoms: N8_8  and  C31_31 
    5  A    between atoms: N8_8  and  C35_35 
    6  A    between atoms: C15_15  and  C17_17 
    7  A    between atoms: C28_28  and  C34_34 

>  <TORSDO>
F 7

$$$$
all.pdbqt
 OpenBabel04112516173D

 38 42  0  0  0  0  0  0  0  0999 V2000
   68.3210   49.3600   52.1370 F   0  0  0  0  0  0  0  0  0  0  0  0
   65.0970   48.5880   51.1120 N   0  0  0  0  0  0  0  0  0  0  0  0
   65.7450   50.4420   50.1160 N   0  0  0  0  0  0  0  0  0  0  0  0
   66.1750   48.4100   51.7640 C   0  0  0  0  0  0  0  0  0  0  0  0
   64.8650   49.5510   50.3160 C   0  0  0  0  0  0  0  0  0  0  0  0
   67.1290   49.3470   51.5660 C   0  0  0  0  0  0  0  0  0  0  0  0
   66.8480   50.3480   50.7200 C   0  0  0  0  0  3  0  0  0  0  0  0
   63.7730   49.6980   49.6770 N   0  0  0  0  0  0  0  0  0  0  0  0
   63.7690   50.5380   49.0430 H   0  0  0  0  0  0  0  0  0  0  0  0
   62.6900   49.0280   49.6550 C   0  0  0  0  0  0  0  0  0  0  0  0
   61.6320   49.3160   50.2950 N   0  0  0  0  0  0  0  0  0  0  0  0
   60.6050   48.5820   50.2060 C   0  0  0  0  0  3  0  0  0  0  0  0
   60.5240   47.4690   49.4610 C   0  0  0  0  0  0  0  0  0  0  0  0
   61.6290   47.1400   48.7750 C   0  0  0  0  0  3  0  0  0  0  0  0
   62.7110   47.9270   48.8770 C   0  0  0  0  0  3  0  0  0  0  0  0
   59.2570   46.6440   49.4050 C   0  0  0  0  0  2  0  0  0  0  0  0
   58.9660   46.0490   50.7040 N   0  0  0  0  0  0  0  0  0  0  0  0
   59.5970   44.7450   50.8380 C   0  0  0  0  0  2  0  0  0  0  0  0
   59.3150   44.1390   52.2220 C   0  0  0  0  0  2  0  0  0  0  0  0
   57.8840   44.0010   52.4570 N   0  0  0  0  0  0  0  0  0  0  0  0
   57.2470   45.3020   52.3130 C   0  0  0  0  0  2  0  0  0  0  0  0
   57.5350   45.9140   50.9320 C   0  0  0  0  0  2  0  0  0  0  0  0
   57.6330   43.3900   53.7590 C   0  0  0  0  0  2  0  0  0  0  0  0
   56.2070   43.6120   54.2880 C   0  0  0  0  0  1  0  0  0  0  0  0
   66.2560   47.3200   52.5770 C   0  0  0  0  0  0  0  0  0  0  0  0
   67.0720   47.3240   53.6620 C   0  0  0  0  0  3  0  0  0  0  0  0
   67.2130   46.2890   54.5070 C   0  0  0  0  0  0  0  0  0  0  0  0
   66.5000   45.1830   54.2680 C   0  0  0  0  0  0  0  0  0  0  0  0
   68.0320   46.3600   55.5460 F   0  0  0  0  0  0  0  0  0  0  0  0
   66.4620   44.0910   54.9060 N   0  0  0  0  0  0  0  0  0  0  0  0
   65.6760   45.1360   53.2130 C   0  0  0  0  0  0  0  0  0  0  0  0
   65.6400   43.3440   54.2930 C   0  0  0  0  0  0  0  0  0  0  0  0
   65.1740   43.9740   53.2920 N   0  0  0  0  0  0  0  0  0  0  0  0
   65.4230   41.9590   54.8350 C   0  0  0  0  0  1  0  0  0  0  0  0
   65.5580   46.1780   52.3790 C   0  0  0  0  0  3  0  0  0  0  0  0
   64.1880   43.4370   52.3270 C   0  0  0  0  0  3  0  0  0  0  0  0
   62.7910   43.1250   52.8900 C   0  0  0  0  0  1  0  0  0  0  0  0
   64.7760   42.2240   51.5900 C   0  0  0  0  0  1  0  0  0  0  0  0
  2  4  1  0  0  0  0
  3  5  1  0  0  0  0
  3  7  2  0  0  0  0
  4 25  1  0  0  0  0
  5  2  2  0  0  0  0
  6  4  2  0  0  0  0
  6  1  1  0  0  0  0
  7  6  1  0  0  0  0
  8  5  1  0  0  0  0
  9  8  1  0  0  0  0
 10  8  1  0  0  0  0
 10 11  1  0  0  0  0
 12 11  2  0  0  0  0
 13 12  1  0  0  0  0
 14 15  1  0  0  0  0
 14 13  2  0  0  0  0
 15 10  2  0  0  0  0
 16 13  1  0  0  0  0
 16 17  1  0  0  0  0
 17 18  1  0  0  0  0
 17 22  1  0  0  0  0
 18 19  1  0  0  0  0
 19 20  1  0  0  0  0
 20 23  1  0  0  0  0
 21 20  1  0  0  0  0
 22 21  1  0  0  0  0
 23 24  1  0  0  0  0
 25 26  1  0  0  0  0
 26 27  2  0  0  0  0
 27 29  1  0  0  0  0
 28 27  1  0  0  0  0
 28 30  1  0  0  0  0
 31 33  1  0  0  0  0
 31 28  2  0  0  0  0
 32 34  1  0  0  0  0
 32 30  2  0  0  0  0
 33 32  1  0  0  0  0
 35 25  2  0  0  0  0
 35 31  1  0  0  0  0
 36 37  1  0  0  0  0
 36 33  1  0  0  0  0
 38 36  1  0  0  0  0
M  END
>  <MODEL>
41

>  <REMARK>
 VINA RESULT:    -8.081      2.118      5.815
 INTER + INTRA:         -12.265
 INTER:                 -11.042
 INTRA:                  -1.223
 UNBOUND:                -0.876
  7 active torsions:
  status: ('A' for Active; 'I' for Inactive)
    1  A    between atoms: N3_3  and  C15_15 
    2  A    between atoms: N4_4  and  C16_16 
    3  A    between atoms: N5_5  and  C19_19 
    4  A    between atoms: N8_8  and  C31_31 
    5  A    between atoms: N8_8  and  C35_35 
    6  A    between atoms: C15_15  and  C17_17 
    7  A    between atoms: C28_28  and  C34_34 

>  <TORSDO>
F 7

$$$$
all.pdbqt
 OpenBabel04112516173D

 38 42  0  0  0  0  0  0  0  0999 V2000
   67.4820   50.4250   51.5490 F   0  0  0  0  0  0  0  0  0  0  0  0
   65.4600   47.8450   50.4100 N   0  0  0  0  0  0  0  0  0  0  0  0
   64.8540   49.7210   49.4300 N   0  0  0  0  0  0  0  0  0  0  0  0
   66.3960   48.3590   51.1020 C   0  0  0  0  0  0  0  0  0  0  0  0
   64.7070   48.4730   49.6020 C   0  0  0  0  0  0  0  0  0  0  0  0
   66.5720   49.6880   50.9340 C   0  0  0  0  0  0  0  0  0  0  0  0
   65.7590   50.3180   50.0740 C   0  0  0  0  0  3  0  0  0  0  0  0
   63.7780   47.9260   48.9230 N   0  0  0  0  0  0  0  0  0  0  0  0
   64.1330   47.3730   48.1000 H   0  0  0  0  0  0  0  0  0  0  0  0
   62.5110   47.9150   49.0480 C   0  0  0  0  0  0  0  0  0  0  0  0
   61.8410   48.6650   49.8230 N   0  0  0  0  0  0  0  0  0  0  0  0
   60.5800   48.5760   49.8740 C   0  0  0  0  0  3  0  0  0  0  0  0
   59.8440   47.7190   49.1490 C   0  0  0  0  0  0  0  0  0  0  0  0
   60.5280   46.9130   48.3220 C   0  0  0  0  0  3  0  0  0  0  0  0
   61.8650   47.0180   48.2770 C   0  0  0  0  0  3  0  0  0  0  0  0
   58.3370   47.6740   49.2650 C   0  0  0  0  0  2  0  0  0  0  0  0
   57.9010   46.4430   49.9140 N   0  0  0  0  0  0  0  0  0  0  0  0
   56.4520   46.3170   49.8820 C   0  0  0  0  0  2  0  0  0  0  0  0
   56.0030   45.0010   50.5370 C   0  0  0  0  0  2  0  0  0  0  0  0
   56.4580   44.9140   51.9180 N   0  0  0  0  0  0  0  0  0  0  0  0
   57.9060   45.0520   51.9550 C   0  0  0  0  0  2  0  0  0  0  0  0
   58.3590   46.3650   51.2930 C   0  0  0  0  0  2  0  0  0  0  0  0
   55.9920   43.6770   52.5370 C   0  0  0  0  0  2  0  0  0  0  0  0
   55.8690   43.7530   54.0680 C   0  0  0  0  0  1  0  0  0  0  0  0
   67.1090   47.5370   51.9220 C   0  0  0  0  0  0  0  0  0  0  0  0
   66.5690   47.0730   53.0770 C   0  0  0  0  0  3  0  0  0  0  0  0
   67.2070   46.2650   53.9410 C   0  0  0  0  0  0  0  0  0  0  0  0
   68.4550   45.8890   53.6410 C   0  0  0  0  0  0  0  0  0  0  0  0
   66.6200   45.8540   55.0550 F   0  0  0  0  0  0  0  0  0  0  0  0
   69.2530   45.1470   54.2850 N   0  0  0  0  0  0  0  0  0  0  0  0
   69.0260   46.3150   52.5080 C   0  0  0  0  0  0  0  0  0  0  0  0
   70.3190   45.0850   53.6010 C   0  0  0  0  0  0  0  0  0  0  0  0
   70.1740   45.7780   52.5450 N   0  0  0  0  0  0  0  0  0  0  0  0
   71.4560   44.2770   54.1580 C   0  0  0  0  0  1  0  0  0  0  0  0
   68.3730   47.1270   51.6660 C   0  0  0  0  0  3  0  0  0  0  0  0
   71.2000   45.9570   51.4920 C   0  0  0  0  0  3  0  0  0  0  0  0
   71.7930   44.6690   50.8990 C   0  0  0  0  0  1  0  0  0  0  0  0
   72.3050   46.9030   51.9870 C   0  0  0  0  0  1  0  0  0  0  0  0
  2  4  1  0  0  0  0
  3  5  1  0  0  0  0
  3  7  2  0  0  0  0
  4 25  1  0  0  0  0
  5  2  2  0  0  0  0
  6  4  2  0  0  0  0
  6  1  1  0  0  0  0
  7  6  1  0  0  0  0
  8 10  1  0  0  0  0
  8  5  1  0  0  0  0
  9  8  1  0  0  0  0
 10 11  1  0  0  0  0
 11 12  2  0  0  0  0
 13 16  1  0  0  0  0
 13 12  1  0  0  0  0
 14 13  2  0  0  0  0
 15 14  1  0  0  0  0
 15 10  2  0  0  0  0
 16 17  1  0  0  0  0
 17 22  1  0  0  0  0
 18 17  1  0  0  0  0
 18 19  1  0  0  0  0
 19 20  1  0  0  0  0
 20 21  1  0  0  0  0
 20 23  1  0  0  0  0
 22 21  1  0  0  0  0
 23 24  1  0  0  0  0
 25 26  1  0  0  0  0
 26 27  2  0  0  0  0
 27 29  1  0  0  0  0
 28 27  1  0  0  0  0
 28 30  1  0  0  0  0
 31 33  1  0  0  0  0
 31 28  2  0  0  0  0
 32 34  1  0  0  0  0
 32 30  2  0  0  0  0
 33 32  1  0  0  0  0
 35 25  2  0  0  0  0
 35 31  1  0  0  0  0
 36 38  1  0  0  0  0
 36 33  1  0  0  0  0
 37 36  1  0  0  0  0
M  END
>  <MODEL>
42

>  <REMARK>
 VINA RESULT:    -8.070      2.891      6.120
 INTER + INTRA:         -12.249
 INTER:                 -11.334
 INTRA:                  -0.915
 UNBOUND:                -0.876
  7 active torsions:
  status: ('A' for Active; 'I' for Inactive)
    1  A    between atoms: N3_3  and  C15_15 
    2  A    between atoms: N4_4  and  C16_16 
    3  A    between atoms: N5_5  and  C19_19 
    4  A    between atoms: N8_8  and  C31_31 
    5  A    between atoms: N8_8  and  C35_35 
    6  A    between atoms: C15_15  and  C17_17 
    7  A    between atoms: C28_28  and  C34_34 

>  <TORSDO>
F 7

$$$$
all.pdbqt
 OpenBabel04112516173D

 38 42  0  0  0  0  0  0  0  0999 V2000
   37.0310   59.1760   57.1100 F   0  0  0  0  0  0  0  0  0  0  0  0
   35.4580   61.6860   58.9160 N   0  0  0  0  0  0  0  0  0  0  0  0
   35.2950   59.7910   60.0250 N   0  0  0  0  0  0  0  0  0  0  0  0
   36.1060   61.2040   57.9330 C   0  0  0  0  0  0  0  0  0  0  0  0
   35.0580   61.0330   59.9300 C   0  0  0  0  0  0  0  0  0  0  0  0
   36.3730   59.8810   58.0130 C   0  0  0  0  0  0  0  0  0  0  0  0
   35.9340   59.2250   59.0970 C   0  0  0  0  0  3  0  0  0  0  0  0
   34.4100   61.5490   60.8980 N   0  0  0  0  0  0  0  0  0  0  0  0
   34.8320   61.3430   61.8400 H   0  0  0  0  0  0  0  0  0  0  0  0
   33.3580   62.2650   60.9470 C   0  0  0  0  0  0  0  0  0  0  0  0
   33.2220   63.3310   61.6230 N   0  0  0  0  0  0  0  0  0  0  0  0
   32.1320   63.9710   61.6050 C   0  0  0  0  0  3  0  0  0  0  0  0
   31.0460   63.6120   60.9020 C   0  0  0  0  0  0  0  0  0  0  0  0
   31.1620   62.4880   60.1780 C   0  0  0  0  0  3  0  0  0  0  0  0
   32.3240   61.8190   60.2060 C   0  0  0  0  0  3  0  0  0  0  0  0
   29.7770   64.4340   60.9300 C   0  0  0  0  0  2  0  0  0  0  0  0
   28.7390   63.7610   61.7020 N   0  0  0  0  0  0  0  0  0  0  0  0
   27.6080   63.4000   60.8610 C   0  0  0  0  0  2  0  0  0  0  0  0
   26.5340   62.6610   61.6740 C   0  0  0  0  0  2  0  0  0  0  0  0
   26.0590   63.4750   62.7860 N   0  0  0  0  0  0  0  0  0  0  0  0
   27.1890   63.8470   63.6240 C   0  0  0  0  0  2  0  0  0  0  0  0
   28.2700   64.5800   62.8100 C   0  0  0  0  0  2  0  0  0  0  0  0
   25.0130   62.7740   63.5260 C   0  0  0  0  0  2  0  0  0  0  0  0
   25.2440   61.2590   63.6460 C   0  0  0  0  0  1  0  0  0  0  0  0
   36.4590   62.0490   56.9250 C   0  0  0  0  0  0  0  0  0  0  0  0
   35.5180   62.5680   56.0950 C   0  0  0  0  0  3  0  0  0  0  0  0
   35.7840   63.4010   55.0750 C   0  0  0  0  0  0  0  0  0  0  0  0
   37.0580   63.7480   54.8650 C   0  0  0  0  0  0  0  0  0  0  0  0
   34.8150   63.8670   54.3010 F   0  0  0  0  0  0  0  0  0  0  0  0
   37.5560   64.5040   53.9820 N   0  0  0  0  0  0  0  0  0  0  0  0
   38.0190   63.2670   55.6630 C   0  0  0  0  0  0  0  0  0  0  0  0
   38.8080   64.5230   54.1870 C   0  0  0  0  0  0  0  0  0  0  0  0
   39.0740   63.7900   55.1900 N   0  0  0  0  0  0  0  0  0  0  0  0
   39.6530   65.3380   53.2490 C   0  0  0  0  0  1  0  0  0  0  0  0
   37.7320   62.4310   56.6690 C   0  0  0  0  0  3  0  0  0  0  0  0
   40.4280   63.5530   55.7410 C   0  0  0  0  0  3  0  0  0  0  0  0
   40.7450   62.1090   56.1630 C   0  0  0  0  0  1  0  0  0  0  0  0
   40.7160   64.5440   56.8800 C   0  0  0  0  0  1  0  0  0  0  0  0
  1  6  1  0  0  0  0
  2  5  2  0  0  0  0
  4  6  2  0  0  0  0
  4  2  1  0  0  0  0
  5  3  1  0  0  0  0
  5  8  1  0  0  0  0
  6  7  1  0  0  0  0
  7  3  2  0  0  0  0
  8 10  1  0  0  0  0
  8  9  1  0  0  0  0
 10 11  1  0  0  0  0
 12 11  2  0  0  0  0
 13 16  1  0  0  0  0
 13 12  1  0  0  0  0
 14 15  1  0  0  0  0
 14 13  2  0  0  0  0
 15 10  2  0  0  0  0
 16 17  1  0  0  0  0
 17 22  1  0  0  0  0
 18 19  1  0  0  0  0
 18 17  1  0  0  0  0
 19 20  1  0  0  0  0
 20 23  1  0  0  0  0
 20 21  1  0  0  0  0
 22 21  1  0  0  0  0
 23 24  1  0  0  0  0
 25  4  1  0  0  0  0
 26 25  2  0  0  0  0
 27 26  1  0  0  0  0
 28 27  2  0  0  0  0
 28 31  1  0  0  0  0
 29 27  1  0  0  0  0
 30 32  2  0  0  0  0
 30 28  1  0  0  0  0
 31 35  2  0  0  0  0
 32 33  1  0  0  0  0
 33 31  1  0  0  0  0
 33 36  1  0  0  0  0
 34 32  1  0  0  0  0
 35 25  1  0  0  0  0
 36 37  1  0  0  0  0
 36 38  1  0  0  0  0
M  END
>  <MODEL>
43

>  <REMARK>
 VINA RESULT:    -8.060     30.422     33.802
 INTER + INTRA:         -12.235
 INTER:                 -11.223
 INTRA:                  -1.012
 UNBOUND:                -0.876
  7 active torsions:
  status: ('A' for Active; 'I' for Inactive)
    1  A    between atoms: N3_3  and  C15_15 
    2  A    between atoms: N4_4  and  C16_16 
    3  A    between atoms: N5_5  and  C19_19 
    4  A    between atoms: N8_8  and  C31_31 
    5  A    between atoms: N8_8  and  C35_35 
    6  A    between atoms: C15_15  and  C17_17 
    7  A    between atoms: C28_28  and  C34_34 

>  <TORSDO>
F 7

$$$$
all.pdbqt
 OpenBabel04112516173D

 38 42  0  0  0  0  0  0  0  0999 V2000
   64.9520   48.9540   48.9090 F   0  0  0  0  0  0  0  0  0  0  0  0
   61.8940   48.1650   50.3470 N   0  0  0  0  0  0  0  0  0  0  0  0
   61.5790   49.6530   48.7560 N   0  0  0  0  0  0  0  0  0  0  0  0
   63.1560   48.0880   50.2010 C   0  0  0  0  0  0  0  0  0  0  0  0
   61.1160   48.9050   49.6690 C   0  0  0  0  0  0  0  0  0  0  0  0
   63.6730   48.8750   49.2320 C   0  0  0  0  0  0  0  0  0  0  0  0
   62.8210   49.6430   48.5380 C   0  0  0  0  0  3  0  0  0  0  0  0
   59.8550   48.9570   49.8410 N   0  0  0  0  0  0  0  0  0  0  0  0
   59.4740   49.9380   49.8490 H   0  0  0  0  0  0  0  0  0  0  0  0
   58.9690   48.0560   50.0040 C   0  0  0  0  0  0  0  0  0  0  0  0
   59.0290   47.1070   50.8450 N   0  0  0  0  0  0  0  0  0  0  0  0
   58.0940   46.2590   50.9280 C   0  0  0  0  0  3  0  0  0  0  0  0
   56.9860   46.2680   50.1710 C   0  0  0  0  0  0  0  0  0  0  0  0
   56.8960   47.2610   49.2730 C   0  0  0  0  0  3  0  0  0  0  0  0
   57.8950   48.1530   49.1950 C   0  0  0  0  0  3  0  0  0  0  0  0
   55.9080   45.2180   50.3330 C   0  0  0  0  0  2  0  0  0  0  0  0
   56.0490   44.5200   51.6050 N   0  0  0  0  0  0  0  0  0  0  0  0
   56.2070   43.0880   51.4040 C   0  0  0  0  0  2  0  0  0  0  0  0
   56.3880   42.3630   52.7470 C   0  0  0  0  0  2  0  0  0  0  0  0
   55.2560   42.5970   53.6330 N   0  0  0  0  0  0  0  0  0  0  0  0
   55.0880   44.0300   53.8270 C   0  0  0  0  0  2  0  0  0  0  0  0
   54.9140   44.7590   52.4840 C   0  0  0  0  0  2  0  0  0  0  0  0
   55.4270   41.8720   54.8880 C   0  0  0  0  0  2  0  0  0  0  0  0
   55.9140   42.7490   56.0530 C   0  0  0  0  0  1  0  0  0  0  0  0
   63.8420   47.2390   51.0170 C   0  0  0  0  0  0  0  0  0  0  0  0
   63.3210   46.0330   51.3570 C   0  0  0  0  0  3  0  0  0  0  0  0
   63.9290   45.1430   52.1600 C   0  0  0  0  0  0  0  0  0  0  0  0
   65.1310   45.4640   52.6530 C   0  0  0  0  0  0  0  0  0  0  0  0
   63.3590   43.9850   52.4550 F   0  0  0  0  0  0  0  0  0  0  0  0
   65.8910   44.8070   53.4210 N   0  0  0  0  0  0  0  0  0  0  0  0
   65.6880   46.6400   52.3380 C   0  0  0  0  0  0  0  0  0  0  0  0
   66.9190   45.5250   53.6110 C   0  0  0  0  0  0  0  0  0  0  0  0
   66.7930   46.6100   52.9600 N   0  0  0  0  0  0  0  0  0  0  0  0
   67.9870   44.9840   54.5200 C   0  0  0  0  0  1  0  0  0  0  0  0
   65.0580   47.5150   51.5420 C   0  0  0  0  0  3  0  0  0  0  0  0
   67.7840   47.7090   52.9290 C   0  0  0  0  0  3  0  0  0  0  0  0
   67.2220   49.1330   53.0730 C   0  0  0  0  0  1  0  0  0  0  0  0
   68.6750   47.5830   51.6830 C   0  0  0  0  0  1  0  0  0  0  0  0
  1  6  1  0  0  0  0
  3  5  1  0  0  0  0
  4  2  1  0  0  0  0
  4 25  1  0  0  0  0
  5  8  1  0  0  0  0
  5  2  2  0  0  0  0
  6  4  2  0  0  0  0
  7  3  2  0  0  0  0
  7  6  1  0  0  0  0
  8  9  1  0  0  0  0
  8 10  1  0  0  0  0
 10 11  1  0  0  0  0
 11 12  2  0  0  0  0
 13 16  1  0  0  0  0
 13 12  1  0  0  0  0
 14 13  2  0  0  0  0
 15 14  1  0  0  0  0
 15 10  2  0  0  0  0
 16 17  1  0  0  0  0
 17 22  1  0  0  0  0
 18 17  1  0  0  0  0
 18 19  1  0  0  0  0
 19 20  1  0  0  0  0
 20 21  1  0  0  0  0
 20 23  1  0  0  0  0
 22 21  1  0  0  0  0
 23 24  1  0  0  0  0
 25 26  2  0  0  0  0
 25 35  1  0  0  0  0
 26 27  1  0  0  0  0
 27 29  1  0  0  0  0
 27 28  2  0  0  0  0
 28 30  1  0  0  0  0
 30 32  2  0  0  0  0
 31 28  1  0  0  0  0
 31 33  1  0  0  0  0
 32 34  1  0  0  0  0
 33 32  1  0  0  0  0
 35 31  2  0  0  0  0
 36 33  1  0  0  0  0
 36 37  1  0  0  0  0
 38 36  1  0  0  0  0
M  END
>  <MODEL>
44

>  <REMARK>
 VINA RESULT:    -8.060      2.634      5.819
 INTER + INTRA:         -12.234
 INTER:                 -11.454
 INTRA:                  -0.780
 UNBOUND:                -0.876
  7 active torsions:
  status: ('A' for Active; 'I' for Inactive)
    1  A    between atoms: N3_3  and  C15_15 
    2  A    between atoms: N4_4  and  C16_16 
    3  A    between atoms: N5_5  and  C19_19 
    4  A    between atoms: N8_8  and  C31_31 
    5  A    between atoms: N8_8  and  C35_35 
    6  A    between atoms: C15_15  and  C17_17 
    7  A    between atoms: C28_28  and  C34_34 

>  <TORSDO>
F 7

$$$$
all.pdbqt
 OpenBabel04112516173D

 38 42  0  0  0  0  0  0  0  0999 V2000
   69.1990   47.0520   52.1210 F   0  0  0  0  0  0  0  0  0  0  0  0
   66.1190   46.0460   53.3650 N   0  0  0  0  0  0  0  0  0  0  0  0
   67.6970   44.7860   54.2430 N   0  0  0  0  0  0  0  0  0  0  0  0
   66.9030   46.7580   52.6580 C   0  0  0  0  0  0  0  0  0  0  0  0
   66.4730   45.0970   54.1320 C   0  0  0  0  0  0  0  0  0  0  0  0
   68.2140   46.4460   52.7610 C   0  0  0  0  0  0  0  0  0  0  0  0
   68.5480   45.4380   53.5800 C   0  0  0  0  0  3  0  0  0  0  0  0
   65.6590   44.4040   54.8270 N   0  0  0  0  0  0  0  0  0  0  0  0
   65.9510   44.3030   55.8330 H   0  0  0  0  0  0  0  0  0  0  0  0
   64.5660   43.8160   54.5420 C   0  0  0  0  0  0  0  0  0  0  0  0
   64.3850   43.0350   53.5580 N   0  0  0  0  0  0  0  0  0  0  0  0
   63.2570   42.4990   53.3600 C   0  0  0  0  0  3  0  0  0  0  0  0
   62.1750   42.6870   54.1330 C   0  0  0  0  0  0  0  0  0  0  0  0
   62.3390   43.5090   55.1810 C   0  0  0  0  0  3  0  0  0  0  0  0
   63.5410   44.0710   55.3790 C   0  0  0  0  0  3  0  0  0  0  0  0
   60.8580   42.0070   53.8320 C   0  0  0  0  0  2  0  0  0  0  0  0
   59.8190   42.9890   53.5450 N   0  0  0  0  0  0  0  0  0  0  0  0
   58.4930   42.4270   53.7540 C   0  0  0  0  0  2  0  0  0  0  0  0
   57.4040   43.4770   53.4830 C   0  0  0  0  0  2  0  0  0  0  0  0
   57.4940   43.9940   52.1240 N   0  0  0  0  0  0  0  0  0  0  0  0
   58.8230   44.5470   51.9080 C   0  0  0  0  0  2  0  0  0  0  0  0
   59.9150   43.5000   52.1860 C   0  0  0  0  0  2  0  0  0  0  0  0
   56.4310   44.9630   51.8710 C   0  0  0  0  0  2  0  0  0  0  0  0
   55.0440   44.5050   52.3520 C   0  0  0  0  0  1  0  0  0  0  0  0
   66.3550   47.7380   51.8880 C   0  0  0  0  0  0  0  0  0  0  0  0
   67.0300   48.8920   51.6500 C   0  0  0  0  0  3  0  0  0  0  0  0
   66.5570   49.9080   50.9090 C   0  0  0  0  0  0  0  0  0  0  0  0
   65.3420   49.7730   50.3640 C   0  0  0  0  0  0  0  0  0  0  0  0
   67.2690   51.0090   50.7220 F   0  0  0  0  0  0  0  0  0  0  0  0
   64.6870   50.5770   49.6400 N   0  0  0  0  0  0  0  0  0  0  0  0
   64.6430   48.6490   50.5650 C   0  0  0  0  0  0  0  0  0  0  0  0
   63.5870   50.0050   49.3710 C   0  0  0  0  0  0  0  0  0  0  0  0
   63.5710   48.8590   49.9200 N   0  0  0  0  0  0  0  0  0  0  0  0
   62.5970   50.7640   48.5320 C   0  0  0  0  0  1  0  0  0  0  0  0
   65.1320   47.6530   51.3150 C   0  0  0  0  0  3  0  0  0  0  0  0
   62.4560   47.8890   49.8400 C   0  0  0  0  0  3  0  0  0  0  0  0
   62.1940   47.2700   48.4570 C   0  0  0  0  0  1  0  0  0  0  0  0
   61.1760   48.5040   50.4270 C   0  0  0  0  0  1  0  0  0  0  0  0
  1  6  1  0  0  0  0
  2  5  2  0  0  0  0
  4  6  2  0  0  0  0
  4  2  1  0  0  0  0
  5  3  1  0  0  0  0
  5  8  1  0  0  0  0
  6  7  1  0  0  0  0
  7  3  2  0  0  0  0
  8  9  1  0  0  0  0
 10  8  1  0  0  0  0
 10 15  1  0  0  0  0
 11 10  2  0  0  0  0
 12 11  1  0  0  0  0
 12 13  2  0  0  0  0
 13 14  1  0  0  0  0
 14 15  2  0  0  0  0
 16 13  1  0  0  0  0
 17 18  1  0  0  0  0
 17 16  1  0  0  0  0
 19 18  1  0  0  0  0
 20 19  1  0  0  0  0
 21 20  1  0  0  0  0
 21 22  1  0  0  0  0
 22 17  1  0  0  0  0
 23 20  1  0  0  0  0
 23 24  1  0  0  0  0
 25  4  1  0  0  0  0
 26 25  1  0  0  0  0
 27 26  2  0  0  0  0
 28 31  2  0  0  0  0
 28 27  1  0  0  0  0
 29 27  1  0  0  0  0
 30 28  1  0  0  0  0
 31 35  1  0  0  0  0
 32 30  2  0  0  0  0
 32 33  1  0  0  0  0
 33 31  1  0  0  0  0
 34 32  1  0  0  0  0
 35 25  2  0  0  0  0
 36 33  1  0  0  0  0
 36 38  1  0  0  0  0
 37 36  1  0  0  0  0
M  END
>  <MODEL>
45

>  <REMARK>
 VINA RESULT:    -8.023      2.095      3.102
 INTER + INTRA:         -12.182
 INTER:                 -10.977
 INTRA:                  -1.205
 UNBOUND:                -0.876
  7 active torsions:
  status: ('A' for Active; 'I' for Inactive)
    1  A    between atoms: N3_3  and  C15_15 
    2  A    between atoms: N4_4  and  C16_16 
    3  A    between atoms: N5_5  and  C19_19 
    4  A    between atoms: N8_8  and  C31_31 
    5  A    between atoms: N8_8  and  C35_35 
    6  A    between atoms: C15_15  and  C17_17 
    7  A    between atoms: C28_28  and  C34_34 

>  <TORSDO>
F 7

$$$$
all.pdbqt
 OpenBabel04112516173D

 38 42  0  0  0  0  0  0  0  0999 V2000
   67.0740   49.5840   51.9690 F   0  0  0  0  0  0  0  0  0  0  0  0
   64.9950   46.8160   51.7220 N   0  0  0  0  0  0  0  0  0  0  0  0
   66.5300   46.4300   53.2530 N   0  0  0  0  0  0  0  0  0  0  0  0
   65.4040   47.9840   51.4240 C   0  0  0  0  0  0  0  0  0  0  0  0
   65.5150   46.0520   52.5940 C   0  0  0  0  0  0  0  0  0  0  0  0
   66.4840   48.4100   52.1150 C   0  0  0  0  0  0  0  0  0  0  0  0
   67.0050   47.5750   53.0260 C   0  0  0  0  0  3  0  0  0  0  0  0
   65.0780   44.8870   52.8680 N   0  0  0  0  0  0  0  0  0  0  0  0
   65.7880   44.2770   53.3500 H   0  0  0  0  0  0  0  0  0  0  0  0
   63.9540   44.3200   52.6750 C   0  0  0  0  0  0  0  0  0  0  0  0
   63.5560   43.8280   51.5750 N   0  0  0  0  0  0  0  0  0  0  0  0
   62.4180   43.2850   51.4860 C   0  0  0  0  0  3  0  0  0  0  0  0
   61.5430   43.1720   52.4980 C   0  0  0  0  0  0  0  0  0  0  0  0
   61.9390   43.6840   53.6740 C   0  0  0  0  0  3  0  0  0  0  0  0
   63.1490   44.2570   53.7550 C   0  0  0  0  0  3  0  0  0  0  0  0
   60.1990   42.5050   52.3130 C   0  0  0  0  0  2  0  0  0  0  0  0
   59.1340   43.3090   52.9020 N   0  0  0  0  0  0  0  0  0  0  0  0
   58.1620   42.4720   53.5890 C   0  0  0  0  0  2  0  0  0  0  0  0
   57.0620   43.3280   54.2360 C   0  0  0  0  0  2  0  0  0  0  0  0
   56.3720   44.1410   53.2430 N   0  0  0  0  0  0  0  0  0  0  0  0
   57.3430   44.9710   52.5450 C   0  0  0  0  0  2  0  0  0  0  0  0
   58.4500   44.1170   51.9040 C   0  0  0  0  0  2  0  0  0  0  0  0
   55.3060   44.9200   53.8670 C   0  0  0  0  0  2  0  0  0  0  0  0
   55.2180   44.7450   55.3920 C   0  0  0  0  0  1  0  0  0  0  0  0
   64.7270   48.6700   50.4610 C   0  0  0  0  0  0  0  0  0  0  0  0
   63.5120   48.2440   50.0310 C   0  0  0  0  0  3  0  0  0  0  0  0
   62.7850   48.8590   49.0830 C   0  0  0  0  0  0  0  0  0  0  0  0
   63.2880   49.9680   48.5290 C   0  0  0  0  0  0  0  0  0  0  0  0
   61.6070   48.3840   48.7080 F   0  0  0  0  0  0  0  0  0  0  0  0
   62.8040   50.7130   47.6280 N   0  0  0  0  0  0  0  0  0  0  0  0
   64.4790   50.4300   48.9270 C   0  0  0  0  0  0  0  0  0  0  0  0
   63.6490   51.6390   47.4350 C   0  0  0  0  0  0  0  0  0  0  0  0
   64.6380   51.4660   48.2140 N   0  0  0  0  0  0  0  0  0  0  0  0
   63.3280   52.6630   46.3820 C   0  0  0  0  0  1  0  0  0  0  0  0
   65.1900   49.7950   49.8690 C   0  0  0  0  0  3  0  0  0  0  0  0
   65.8330   52.3390   48.2850 C   0  0  0  0  0  3  0  0  0  0  0  0
   66.9320   51.9040   49.2670 C   0  0  0  0  0  1  0  0  0  0  0  0
   65.4090   53.7960   48.5300 C   0  0  0  0  0  1  0  0  0  0  0  0
  1  6  1  0  0  0  0
  2  5  2  0  0  0  0
  4  2  1  0  0  0  0
  4  6  2  0  0  0  0
  5  8  1  0  0  0  0
  5  3  1  0  0  0  0
  6  7  1  0  0  0  0
  7  3  2  0  0  0  0
  8  9  1  0  0  0  0
 10  8  1  0  0  0  0
 10 15  1  0  0  0  0
 11 10  2  0  0  0  0
 12 11  1  0  0  0  0
 12 13  2  0  0  0  0
 13 14  1  0  0  0  0
 14 15  2  0  0  0  0
 16 13  1  0  0  0  0
 16 17  1  0  0  0  0
 17 18  1  0  0  0  0
 18 19  1  0  0  0  0
 20 23  1  0  0  0  0
 20 19  1  0  0  0  0
 21 20  1  0  0  0  0
 22 21  1  0  0  0  0
 22 17  1  0  0  0  0
 23 24  1  0  0  0  0
 25  4  1  0  0  0  0
 26 25  1  0  0  0  0
 27 26  2  0  0  0  0
 28 31  2  0  0  0  0
 28 27  1  0  0  0  0
 29 27  1  0  0  0  0
 30 28  1  0  0  0  0
 31 35  1  0  0  0  0
 32 30  2  0  0  0  0
 32 33  1  0  0  0  0
 33 36  1  0  0  0  0
 33 31  1  0  0  0  0
 34 32  1  0  0  0  0
 35 25  2  0  0  0  0
 36 38  1  0  0  0  0
 36 37  1  0  0  0  0
M  END
>  <MODEL>
46

>  <REMARK>
 VINA RESULT:    -8.015      1.924      2.757
 INTER + INTRA:         -12.171
 INTER:                 -12.010
 INTRA:                  -0.160
 UNBOUND:                -0.876
  7 active torsions:
  status: ('A' for Active; 'I' for Inactive)
    1  A    between atoms: N3_3  and  C15_15 
    2  A    between atoms: N4_4  and  C16_16 
    3  A    between atoms: N5_5  and  C19_19 
    4  A    between atoms: N8_8  and  C31_31 
    5  A    between atoms: N8_8  and  C35_35 
    6  A    between atoms: C15_15  and  C17_17 
    7  A    between atoms: C28_28  and  C34_34 

>  <TORSDO>
F 7

$$$$
all.pdbqt
 OpenBabel04112516173D

 38 42  0  0  0  0  0  0  0  0999 V2000
   62.2180   49.5260   48.6510 F   0  0  0  0  0  0  0  0  0  0  0  0
   63.9330   48.4010   51.4500 N   0  0  0  0  0  0  0  0  0  0  0  0
   65.1190   49.9710   50.4610 N   0  0  0  0  0  0  0  0  0  0  0  0
   62.9660   48.4310   50.6230 C   0  0  0  0  0  0  0  0  0  0  0  0
   64.9750   49.1270   51.3960 C   0  0  0  0  0  0  0  0  0  0  0  0
   63.0970   49.3250   49.6170 C   0  0  0  0  0  0  0  0  0  0  0  0
   64.2100   50.0720   49.5930 C   0  0  0  0  0  3  0  0  0  0  0  0
   65.9250   49.0710   52.2440 N   0  0  0  0  0  0  0  0  0  0  0  0
   66.0590   49.9660   52.7810 H   0  0  0  0  0  0  0  0  0  0  0  0
   66.7380   48.1460   52.5670 C   0  0  0  0  0  0  0  0  0  0  0  0
   66.8890   47.6710   53.7350 N   0  0  0  0  0  0  0  0  0  0  0  0
   67.7270   46.7500   53.9530 C   0  0  0  0  0  3  0  0  0  0  0  0
   68.5150   46.1970   53.0180 C   0  0  0  0  0  0  0  0  0  0  0  0
   68.3770   46.6800   51.7740 C   0  0  0  0  0  3  0  0  0  0  0  0
   67.4840   47.6570   51.5560 C   0  0  0  0  0  3  0  0  0  0  0  0
   69.4940   45.0940   53.3580 C   0  0  0  0  0  2  0  0  0  0  0  0
   70.6780   45.1710   52.5120 N   0  0  0  0  0  0  0  0  0  0  0  0
   70.9010   43.9190   51.8040 C   0  0  0  0  0  2  0  0  0  0  0  0
   72.1310   44.0190   50.8880 C   0  0  0  0  0  2  0  0  0  0  0  0
   73.3290   44.3570   51.6460 N   0  0  0  0  0  0  0  0  0  0  0  0
   73.1050   45.6030   52.3640 C   0  0  0  0  0  2  0  0  0  0  0  0
   71.8700   45.5090   53.2750 C   0  0  0  0  0  2  0  0  0  0  0  0
   74.4940   44.4120   50.7670 C   0  0  0  0  0  2  0  0  0  0  0  0
   74.1570   44.2550   49.2750 C   0  0  0  0  0  1  0  0  0  0  0  0
   61.9230   47.5810   50.8300 C   0  0  0  0  0  0  0  0  0  0  0  0
   62.0330   46.5490   51.7040 C   0  0  0  0  0  3  0  0  0  0  0  0
   61.0550   45.6640   51.9600 C   0  0  0  0  0  0  0  0  0  0  0  0
   59.8920   45.8120   51.3140 C   0  0  0  0  0  0  0  0  0  0  0  0
   61.2340   44.6760   52.8240 F   0  0  0  0  0  0  0  0  0  0  0  0
   58.8370   45.1170   51.3800 N   0  0  0  0  0  0  0  0  0  0  0  0
   59.7350   46.8200   50.4480 C   0  0  0  0  0  0  0  0  0  0  0  0
   58.0070   45.6480   50.5810 C   0  0  0  0  0  0  0  0  0  0  0  0
   58.5460   46.6610   50.0360 N   0  0  0  0  0  0  0  0  0  0  0  0
   56.6600   44.9960   50.4450 C   0  0  0  0  0  1  0  0  0  0  0  0
   60.7280   47.6860   50.2030 C   0  0  0  0  0  3  0  0  0  0  0  0
   57.8960   47.5440   49.0400 C   0  0  0  0  0  3  0  0  0  0  0  0
   58.7110   47.8530   47.7740 C   0  0  0  0  0  1  0  0  0  0  0  0
   57.4050   48.8330   49.7170 C   0  0  0  0  0  1  0  0  0  0  0  0
  1  6  1  0  0  0  0
  3  5  1  0  0  0  0
  4 25  1  0  0  0  0
  4  2  1  0  0  0  0
  5  2  2  0  0  0  0
  5  8  1  0  0  0  0
  6  4  2  0  0  0  0
  7  6  1  0  0  0  0
  7  3  2  0  0  0  0
  8 10  1  0  0  0  0
  8  9  1  0  0  0  0
 10 11  1  0  0  0  0
 11 12  2  0  0  0  0
 13 16  1  0  0  0  0
 13 12  1  0  0  0  0
 14 13  2  0  0  0  0
 15 14  1  0  0  0  0
 15 10  2  0  0  0  0
 17 22  1  0  0  0  0
 17 16  1  0  0  0  0
 18 17  1  0  0  0  0
 19 20  1  0  0  0  0
 19 18  1  0  0  0  0
 20 21  1  0  0  0  0
 21 22  1  0  0  0  0
 23 20  1  0  0  0  0
 24 23  1  0  0  0  0
 25 26  1  0  0  0  0
 26 27  2  0  0  0  0
 27 29  1  0  0  0  0
 28 30  1  0  0  0  0
 28 27  1  0  0  0  0
 31 28  2  0  0  0  0
 32 30  2  0  0  0  0
 33 31  1  0  0  0  0
 33 32  1  0  0  0  0
 34 32  1  0  0  0  0
 35 31  1  0  0  0  0
 35 25  2  0  0  0  0
 36 38  1  0  0  0  0
 36 33  1  0  0  0  0
 37 36  1  0  0  0  0
M  END
>  <MODEL>
47

>  <REMARK>
 VINA RESULT:    -8.013      4.085      9.750
 INTER + INTRA:         -12.169
 INTER:                 -11.313
 INTRA:                  -0.856
 UNBOUND:                -0.876
  7 active torsions:
  status: ('A' for Active; 'I' for Inactive)
    1  A    between atoms: N3_3  and  C15_15 
    2  A    between atoms: N4_4  and  C16_16 
    3  A    between atoms: N5_5  and  C19_19 
    4  A    between atoms: N8_8  and  C31_31 
    5  A    between atoms: N8_8  and  C35_35 
    6  A    between atoms: C15_15  and  C17_17 
    7  A    between atoms: C28_28  and  C34_34 

>  <TORSDO>
F 7

$$$$
all.pdbqt
 OpenBabel04112516173D

 38 42  0  0  0  0  0  0  0  0999 V2000
   65.1790   46.6800   52.1910 F   0  0  0  0  0  0  0  0  0  0  0  0
   62.6490   47.6040   50.0020 N   0  0  0  0  0  0  0  0  0  0  0  0
   62.1090   45.6990   50.9640 N   0  0  0  0  0  0  0  0  0  0  0  0
   63.7650   47.7370   50.5990 C   0  0  0  0  0  0  0  0  0  0  0  0
   61.8370   46.6400   50.1580 C   0  0  0  0  0  0  0  0  0  0  0  0
   64.0760   46.7470   51.4650 C   0  0  0  0  0  0  0  0  0  0  0  0
   63.1950   45.7450   51.6020 C   0  0  0  0  0  3  0  0  0  0  0  0
   60.7260   46.5390   49.5430 N   0  0  0  0  0  0  0  0  0  0  0  0
   60.7740   46.8500   48.5390 H   0  0  0  0  0  0  0  0  0  0  0  0
   59.5730   46.1360   49.9060 C   0  0  0  0  0  0  0  0  0  0  0  0
   59.3180   45.0050   50.4230 N   0  0  0  0  0  0  0  0  0  0  0  0
   58.1350   44.6990   50.7500 C   0  0  0  0  0  3  0  0  0  0  0  0
   57.0670   45.4970   50.5920 C   0  0  0  0  0  0  0  0  0  0  0  0
   57.3090   46.6980   50.0460 C   0  0  0  0  0  3  0  0  0  0  0  0
   58.5680   47.0110   49.7040 C   0  0  0  0  0  3  0  0  0  0  0  0
   55.6810   45.0580   51.0100 C   0  0  0  0  0  2  0  0  0  0  0  0
   55.5190   43.6180   50.8440 N   0  0  0  0  0  0  0  0  0  0  0  0
   54.7680   43.3100   49.6360 C   0  0  0  0  0  2  0  0  0  0  0  0
   54.6310   41.7910   49.4500 C   0  0  0  0  0  2  0  0  0  0  0  0
   53.9690   41.1750   50.5920 N   0  0  0  0  0  0  0  0  0  0  0  0
   54.7120   41.4910   51.8030 C   0  0  0  0  0  2  0  0  0  0  0  0
   54.8580   43.0110   51.9880 C   0  0  0  0  0  2  0  0  0  0  0  0
   53.8130   39.7380   50.3830 C   0  0  0  0  0  2  0  0  0  0  0  0
   53.7760   38.9190   51.6840 C   0  0  0  0  0  1  0  0  0  0  0  0
   64.5150   48.8370   50.3130 C   0  0  0  0  0  0  0  0  0  0  0  0
   65.7550   48.9880   50.8440 C   0  0  0  0  0  3  0  0  0  0  0  0
   66.5530   50.0450   50.6170 C   0  0  0  0  0  0  0  0  0  0  0  0
   66.1000   51.0100   49.8100 C   0  0  0  0  0  0  0  0  0  0  0  0
   67.7520   50.1290   51.1740 F   0  0  0  0  0  0  0  0  0  0  0  0
   66.6540   52.0890   49.4490 N   0  0  0  0  0  0  0  0  0  0  0  0
   64.8860   50.9000   49.2570 C   0  0  0  0  0  0  0  0  0  0  0  0
   65.8320   52.6770   48.6820 C   0  0  0  0  0  0  0  0  0  0  0  0
   64.7870   51.9620   48.5690 N   0  0  0  0  0  0  0  0  0  0  0  0
   66.2350   54.0130   48.1250 C   0  0  0  0  0  1  0  0  0  0  0  0
   64.1040   49.8410   49.5040 C   0  0  0  0  0  3  0  0  0  0  0  0
   63.5970   52.3100   47.7600 C   0  0  0  0  0  3  0  0  0  0  0  0
   63.6690   51.9580   46.2650 C   0  0  0  0  0  1  0  0  0  0  0  0
   63.2280   53.7860   47.9690 C   0  0  0  0  0  1  0  0  0  0  0  0
  2  5  2  0  0  0  0
  2  4  1  0  0  0  0
  3  7  2  0  0  0  0
  4  6  2  0  0  0  0
  5  3  1  0  0  0  0
  6  7  1  0  0  0  0
  6  1  1  0  0  0  0
  8 10  1  0  0  0  0
  8  5  1  0  0  0  0
  9  8  1  0  0  0  0
 10 11  1  0  0  0  0
 11 12  2  0  0  0  0
 13 12  1  0  0  0  0
 13 16  1  0  0  0  0
 14 13  2  0  0  0  0
 15 10  2  0  0  0  0
 15 14  1  0  0  0  0
 17 16  1  0  0  0  0
 17 22  1  0  0  0  0
 18 17  1  0  0  0  0
 19 18  1  0  0  0  0
 19 20  1  0  0  0  0
 20 21  1  0  0  0  0
 21 22  1  0  0  0  0
 23 20  1  0  0  0  0
 23 24  1  0  0  0  0
 25  4  1  0  0  0  0
 25 26  1  0  0  0  0
 27 26  2  0  0  0  0
 27 29  1  0  0  0  0
 28 27  1  0  0  0  0
 30 28  1  0  0  0  0
 31 35  1  0  0  0  0
 31 28  2  0  0  0  0
 32 30  2  0  0  0  0
 33 32  1  0  0  0  0
 33 31  1  0  0  0  0
 34 32  1  0  0  0  0
 35 25  2  0  0  0  0
 36 38  1  0  0  0  0
 36 33  1  0  0  0  0
 37 36  1  0  0  0  0
M  END
>  <MODEL>
48

>  <REMARK>
 VINA RESULT:    -8.009      2.341      3.559
 INTER + INTRA:         -12.162
 INTER:                 -11.997
 INTRA:                  -0.165
 UNBOUND:                -0.876
  7 active torsions:
  status: ('A' for Active; 'I' for Inactive)
    1  A    between atoms: N3_3  and  C15_15 
    2  A    between atoms: N4_4  and  C16_16 
    3  A    between atoms: N5_5  and  C19_19 
    4  A    between atoms: N8_8  and  C31_31 
    5  A    between atoms: N8_8  and  C35_35 
    6  A    between atoms: C15_15  and  C17_17 
    7  A    between atoms: C28_28  and  C34_34 

>  <TORSDO>
F 7

$$$$
all.pdbqt
 OpenBabel04112516173D

 38 42  0  0  0  0  0  0  0  0999 V2000
   64.7700   42.2860   55.4900 F   0  0  0  0  0  0  0  0  0  0  0  0
   63.5410   44.3500   52.9860 N   0  0  0  0  0  0  0  0  0  0  0  0
   61.8520   43.5170   54.1270 N   0  0  0  0  0  0  0  0  0  0  0  0
   64.4500   43.7670   53.6600 C   0  0  0  0  0  0  0  0  0  0  0  0
   62.2910   44.2490   53.1890 C   0  0  0  0  0  0  0  0  0  0  0  0
   64.0060   42.9820   54.6660 C   0  0  0  0  0  0  0  0  0  0  0  0
   62.6800   42.8990   54.8490 C   0  0  0  0  0  3  0  0  0  0  0  0
   61.4070   44.8490   52.4940 N   0  0  0  0  0  0  0  0  0  0  0  0
   60.4220   44.6270   52.7900 H   0  0  0  0  0  0  0  0  0  0  0  0
   61.4850   45.6630   51.5180 C   0  0  0  0  0  0  0  0  0  0  0  0
   61.3770   45.3550   50.2910 N   0  0  0  0  0  0  0  0  0  0  0  0
   61.4700   46.2410   49.3930 C   0  0  0  0  0  3  0  0  0  0  0  0
   61.6840   47.5450   49.6260 C   0  0  0  0  0  0  0  0  0  0  0  0
   61.8020   47.8990   50.9150 C   0  0  0  0  0  3  0  0  0  0  0  0
   61.7010   46.9500   51.8570 C   0  0  0  0  0  3  0  0  0  0  0  0
   61.7810   48.5460   48.4960 C   0  0  0  0  0  2  0  0  0  0  0  0
   62.7020   49.6250   48.8340 N   0  0  0  0  0  0  0  0  0  0  0  0
   62.5170   50.7690   47.9550 C   0  0  0  0  0  2  0  0  0  0  0  0
   63.4680   51.9140   48.3390 C   0  0  0  0  0  2  0  0  0  0  0  0
   64.8600   51.4890   48.2800 N   0  0  0  0  0  0  0  0  0  0  0  0
   65.0460   50.3370   49.1490 C   0  0  0  0  0  2  0  0  0  0  0  0
   64.0900   49.1920   48.7720 C   0  0  0  0  0  2  0  0  0  0  0  0
   65.7510   52.5970   48.6110 C   0  0  0  0  0  2  0  0  0  0  0  0
   65.1310   53.9850   48.3780 C   0  0  0  0  0  1  0  0  0  0  0  0
   65.7470   43.9870   53.3060 C   0  0  0  0  0  0  0  0  0  0  0  0
   66.6610   42.9850   53.3630 C   0  0  0  0  0  3  0  0  0  0  0  0
   67.9580   43.1230   53.0390 C   0  0  0  0  0  0  0  0  0  0  0  0
   68.3760   44.3250   52.6270 C   0  0  0  0  0  0  0  0  0  0  0  0
   68.7960   42.1010   53.1230 F   0  0  0  0  0  0  0  0  0  0  0  0
   69.5310   44.7020   52.2740 N   0  0  0  0  0  0  0  0  0  0  0  0
   67.5080   45.3410   52.5480 C   0  0  0  0  0  0  0  0  0  0  0  0
   69.4320   45.9300   51.9710 C   0  0  0  0  0  0  0  0  0  0  0  0
   68.2270   46.3000   52.1320 N   0  0  0  0  0  0  0  0  0  0  0  0
   70.6830   46.6400   51.5360 C   0  0  0  0  0  1  0  0  0  0  0  0
   66.2210   45.1830   52.8840 C   0  0  0  0  0  3  0  0  0  0  0  0
   67.7130   47.6670   51.8850 C   0  0  0  0  0  3  0  0  0  0  0  0
   67.4660   48.5330   53.1310 C   0  0  0  0  0  1  0  0  0  0  0  0
   66.4650   47.6080   50.9900 C   0  0  0  0  0  1  0  0  0  0  0  0
  2  5  2  0  0  0  0
  2  4  1  0  0  0  0
  3  7  2  0  0  0  0
  4  6  2  0  0  0  0
  5  3  1  0  0  0  0
  6  7  1  0  0  0  0
  6  1  1  0  0  0  0
  8  9  1  0  0  0  0
  8  5  1  0  0  0  0
 10 15  1  0  0  0  0
 10  8  1  0  0  0  0
 11 10  2  0  0  0  0
 12 13  2  0  0  0  0
 12 11  1  0  0  0  0
 13 14  1  0  0  0  0
 14 15  2  0  0  0  0
 16 17  1  0  0  0  0
 16 13  1  0  0  0  0
 18 19  1  0  0  0  0
 18 17  1  0  0  0  0
 20 19  1  0  0  0  0
 20 23  1  0  0  0  0
 20 21  1  0  0  0  0
 22 17  1  0  0  0  0
 22 21  1  0  0  0  0
 24 23  1  0  0  0  0
 25 26  1  0  0  0  0
 25  4  1  0  0  0  0
 27 29  1  0  0  0  0
 27 26  2  0  0  0  0
 28 27  1  0  0  0  0
 30 28  1  0  0  0  0
 31 28  2  0  0  0  0
 31 35  1  0  0  0  0
 32 33  1  0  0  0  0
 32 30  2  0  0  0  0
 33 31  1  0  0  0  0
 34 32  1  0  0  0  0
 35 25  2  0  0  0  0
 36 33  1  0  0  0  0
 36 37  1  0  0  0  0
 38 36  1  0  0  0  0
M  END
>  <MODEL>
49

>  <REMARK>
 VINA RESULT:    -8.008      3.547      7.980
 INTER + INTRA:         -12.162
 INTER:                 -11.083
 INTRA:                  -1.079
 UNBOUND:                -0.876
  7 active torsions:
  status: ('A' for Active; 'I' for Inactive)
    1  A    between atoms: N3_3  and  C15_15 
    2  A    between atoms: N4_4  and  C16_16 
    3  A    between atoms: N5_5  and  C19_19 
    4  A    between atoms: N8_8  and  C31_31 
    5  A    between atoms: N8_8  and  C35_35 
    6  A    between atoms: C15_15  and  C17_17 
    7  A    between atoms: C28_28  and  C34_34 

>  <TORSDO>
F 7

$$$$
all.pdbqt
 OpenBabel04112516173D

 38 42  0  0  0  0  0  0  0  0999 V2000
   60.7500   50.5210   50.0530 F   0  0  0  0  0  0  0  0  0  0  0  0
   61.7060   47.2170   50.5130 N   0  0  0  0  0  0  0  0  0  0  0  0
   59.5190   47.3080   50.2760 N   0  0  0  0  0  0  0  0  0  0  0  0
   61.8990   48.4700   50.3970 C   0  0  0  0  0  0  0  0  0  0  0  0
   60.5780   46.6350   50.4590 C   0  0  0  0  0  0  0  0  0  0  0  0
   60.7850   49.2080   50.2000 C   0  0  0  0  0  0  0  0  0  0  0  0
   59.6120   48.5590   50.1500 C   0  0  0  0  0  3  0  0  0  0  0  0
   60.4220   45.3760   50.5780 N   0  0  0  0  0  0  0  0  0  0  0  0
   61.1690   44.8140   50.0960 H   0  0  0  0  0  0  0  0  0  0  0  0
   59.5410   44.6690   51.1670 C   0  0  0  0  0  0  0  0  0  0  0  0
   58.3390   44.5200   50.7850 N   0  0  0  0  0  0  0  0  0  0  0  0
   57.5390   43.7940   51.4430 C   0  0  0  0  0  3  0  0  0  0  0  0
   57.8560   43.1310   52.5660 C   0  0  0  0  0  0  0  0  0  0  0  0
   59.1210   43.2720   52.9930 C   0  0  0  0  0  3  0  0  0  0  0  0
   59.9590   44.0440   52.2860 C   0  0  0  0  0  3  0  0  0  0  0  0
   56.8410   42.2790   53.2960 C   0  0  0  0  0  2  0  0  0  0  0  0
   56.9150   42.5020   54.7350 N   0  0  0  0  0  0  0  0  0  0  0  0
   57.3550   41.3020   55.4310 C   0  0  0  0  0  2  0  0  0  0  0  0
   57.4630   41.5540   56.9430 C   0  0  0  0  0  2  0  0  0  0  0  0
   56.1880   41.9860   57.5000 N   0  0  0  0  0  0  0  0  0  0  0  0
   55.7380   43.1790   56.7980 C   0  0  0  0  0  2  0  0  0  0  0  0
   55.6370   42.9320   55.2840 C   0  0  0  0  0  2  0  0  0  0  0  0
   56.2970   42.1850   58.9420 C   0  0  0  0  0  2  0  0  0  0  0  0
   56.7510   40.9330   59.7110 C   0  0  0  0  0  1  0  0  0  0  0  0
   63.1790   48.9280   50.4800 C   0  0  0  0  0  0  0  0  0  0  0  0
   64.0820   48.3210   51.2920 C   0  0  0  0  0  3  0  0  0  0  0  0
   65.3580   48.7150   51.4350 C   0  0  0  0  0  0  0  0  0  0  0  0
   65.7700   49.7720   50.7280 C   0  0  0  0  0  0  0  0  0  0  0  0
   66.1840   48.0770   52.2510 F   0  0  0  0  0  0  0  0  0  0  0  0
   66.9060   50.3290   50.6920 N   0  0  0  0  0  0  0  0  0  0  0  0
   64.9170   50.3990   49.9080 C   0  0  0  0  0  0  0  0  0  0  0  0
   66.8080   51.2950   49.8760 C   0  0  0  0  0  0  0  0  0  0  0  0
   65.6250   51.3270   49.4110 N   0  0  0  0  0  0  0  0  0  0  0  0
   68.0250   52.1510   49.6630 C   0  0  0  0  0  1  0  0  0  0  0  0
   63.6460   49.9930   49.7880 C   0  0  0  0  0  3  0  0  0  0  0  0
   65.1180   52.3130   48.4300 C   0  0  0  0  0  3  0  0  0  0  0  0
   64.0100   53.2550   48.9280 C   0  0  0  0  0  1  0  0  0  0  0  0
   64.7060   51.6030   47.1310 C   0  0  0  0  0  1  0  0  0  0  0  0
  1  6  1  0  0  0  0
  3  5  1  0  0  0  0
  4 25  1  0  0  0  0
  4  2  1  0  0  0  0
  5  2  2  0  0  0  0
  5  8  1  0  0  0  0
  6  4  2  0  0  0  0
  7  6  1  0  0  0  0
  7  3  2  0  0  0  0
  8 10  1  0  0  0  0
  9  8  1  0  0  0  0
 10 15  1  0  0  0  0
 11 10  2  0  0  0  0
 11 12  1  0  0  0  0
 12 13  2  0  0  0  0
 13 14  1  0  0  0  0
 13 16  1  0  0  0  0
 15 14  2  0  0  0  0
 16 17  1  0  0  0  0
 17 22  1  0  0  0  0
 17 18  1  0  0  0  0
 18 19  1  0  0  0  0
 19 20  1  0  0  0  0
 20 23  1  0  0  0  0
 21 20  1  0  0  0  0
 22 21  1  0  0  0  0
 23 24  1  0  0  0  0
 25 26  1  0  0  0  0
 26 27  2  0  0  0  0
 27 29  1  0  0  0  0
 28 27  1  0  0  0  0
 30 28  1  0  0  0  0
 31 28  2  0  0  0  0
 32 30  2  0  0  0  0
 33 32  1  0  0  0  0
 33 31  1  0  0  0  0
 34 32  1  0  0  0  0
 35 31  1  0  0  0  0
 35 25  2  0  0  0  0
 36 37  1  0  0  0  0
 36 33  1  0  0  0  0
 38 36  1  0  0  0  0
M  END
>  <MODEL>
50

>  <REMARK>
 VINA RESULT:    -7.999      2.468      4.437
 INTER + INTRA:         -12.149
 INTER:                 -11.507
 INTRA:                  -0.642
 UNBOUND:                -0.876
  7 active torsions:
  status: ('A' for Active; 'I' for Inactive)
    1  A    between atoms: N3_3  and  C15_15 
    2  A    between atoms: N4_4  and  C16_16 
    3  A    between atoms: N5_5  and  C19_19 
    4  A    between atoms: N8_8  and  C31_31 
    5  A    between atoms: N8_8  and  C35_35 
    6  A    between atoms: C15_15  and  C17_17 
    7  A    between atoms: C28_28  and  C34_34 

>  <TORSDO>
F 7

$$$$
all.pdbqt
 OpenBabel04112516173D

 38 42  0  0  0  0  0  0  0  0999 V2000
   62.7110   41.9170   51.5030 F   0  0  0  0  0  0  0  0  0  0  0  0
   63.6740   45.1450   52.3380 N   0  0  0  0  0  0  0  0  0  0  0  0
   65.4000   43.7970   52.5630 N   0  0  0  0  0  0  0  0  0  0  0  0
   62.8580   44.2450   51.9590 C   0  0  0  0  0  0  0  0  0  0  0  0
   64.8960   44.9580   52.6330 C   0  0  0  0  0  0  0  0  0  0  0  0
   63.3740   42.9990   51.8750 C   0  0  0  0  0  0  0  0  0  0  0  0
   64.6670   42.8400   52.1950 C   0  0  0  0  0  3  0  0  0  0  0  0
   65.6860   45.8840   53.0090 N   0  0  0  0  0  0  0  0  0  0  0  0
   66.1330   45.6990   53.9440 H   0  0  0  0  0  0  0  0  0  0  0  0
   66.0400   46.9850   52.4750 C   0  0  0  0  0  0  0  0  0  0  0  0
   65.3770   48.0670   52.5080 N   0  0  0  0  0  0  0  0  0  0  0  0
   65.8170   49.1100   51.9440 C   0  0  0  0  0  3  0  0  0  0  0  0
   66.9800   49.1860   51.2770 C   0  0  0  0  0  0  0  0  0  0  0  0
   67.7010   48.0550   51.2260 C   0  0  0  0  0  3  0  0  0  0  0  0
   67.2230   46.9560   51.8290 C   0  0  0  0  0  3  0  0  0  0  0  0
   67.4390   50.4730   50.6290 C   0  0  0  0  0  2  0  0  0  0  0  0
   66.3190   51.1730   50.0110 N   0  0  0  0  0  0  0  0  0  0  0  0
   65.5750   50.2920   49.1230 C   0  0  0  0  0  2  0  0  0  0  0  0
   64.3770   51.0260   48.5010 C   0  0  0  0  0  2  0  0  0  0  0  0
   64.8050   52.2020   47.7560 N   0  0  0  0  0  0  0  0  0  0  0  0
   65.5600   53.0800   48.6380 C   0  0  0  0  0  2  0  0  0  0  0  0
   66.7550   52.3450   49.2680 C   0  0  0  0  0  2  0  0  0  0  0  0
   63.6600   52.8670   47.1410 C   0  0  0  0  0  2  0  0  0  0  0  0
   63.5050   54.3420   47.5440 C   0  0  0  0  0  1  0  0  0  0  0  0
   61.5780   44.6200   51.6810 C   0  0  0  0  0  0  0  0  0  0  0  0
   60.5300   44.0110   52.2910 C   0  0  0  0  0  3  0  0  0  0  0  0
   59.2410   44.3170   52.0680 C   0  0  0  0  0  0  0  0  0  0  0  0
   58.9710   45.2910   51.1920 C   0  0  0  0  0  0  0  0  0  0  0  0
   58.2660   43.6770   52.6970 F   0  0  0  0  0  0  0  0  0  0  0  0
   57.8560   45.7530   50.8150 N   0  0  0  0  0  0  0  0  0  0  0  0
   59.9740   45.9250   50.5720 C   0  0  0  0  0  0  0  0  0  0  0  0
   58.1110   46.6650   49.9700 C   0  0  0  0  0  0  0  0  0  0  0  0
   59.3710   46.7640   49.8350 N   0  0  0  0  0  0  0  0  0  0  0  0
   56.9450   47.3710   49.3370 C   0  0  0  0  0  1  0  0  0  0  0  0
   61.2520   45.5970   50.8040 C   0  0  0  0  0  3  0  0  0  0  0  0
   60.0620   47.7150   48.9350 C   0  0  0  0  0  3  0  0  0  0  0  0
   61.0210   47.0970   47.9040 C   0  0  0  0  0  1  0  0  0  0  0  0
   60.7570   48.8110   49.7570 C   0  0  0  0  0  1  0  0  0  0  0  0
  1  6  1  0  0  0  0
  2  5  2  0  0  0  0
  3  5  1  0  0  0  0
  4  2  1  0  0  0  0
  5  8  1  0  0  0  0
  6  4  2  0  0  0  0
  6  7  1  0  0  0  0
  7  3  2  0  0  0  0
  8  9  1  0  0  0  0
 10 11  1  0  0  0  0
 10  8  1  0  0  0  0
 12 11  2  0  0  0  0
 13 12  1  0  0  0  0
 14 13  2  0  0  0  0
 14 15  1  0  0  0  0
 15 10  2  0  0  0  0
 16 13  1  0  0  0  0
 17 16  1  0  0  0  0
 18 17  1  0  0  0  0
 19 18  1  0  0  0  0
 20 19  1  0  0  0  0
 20 21  1  0  0  0  0
 21 22  1  0  0  0  0
 22 17  1  0  0  0  0
 23 24  1  0  0  0  0
 23 20  1  0  0  0  0
 25  4  1  0  0  0  0
 25 26  1  0  0  0  0
 27 26  2  0  0  0  0
 27 29  1  0  0  0  0
 28 27  1  0  0  0  0
 30 28  1  0  0  0  0
 31 35  1  0  0  0  0
 31 28  2  0  0  0  0
 32 30  2  0  0  0  0
 33 32  1  0  0  0  0
 33 31  1  0  0  0  0
 34 32  1  0  0  0  0
 35 25  2  0  0  0  0
 36 38  1  0  0  0  0
 36 33  1  0  0  0  0
 37 36  1  0  0  0  0
M  END
>  <MODEL>
51

>  <REMARK>
 VINA RESULT:    -7.971      3.095      8.764
 INTER + INTRA:         -12.109
 INTER:                 -11.185
 INTRA:                  -0.924
 UNBOUND:                -0.876
  7 active torsions:
  status: ('A' for Active; 'I' for Inactive)
    1  A    between atoms: N3_3  and  C15_15 
    2  A    between atoms: N4_4  and  C16_16 
    3  A    between atoms: N5_5  and  C19_19 
    4  A    between atoms: N8_8  and  C31_31 
    5  A    between atoms: N8_8  and  C35_35 
    6  A    between atoms: C15_15  and  C17_17 
    7  A    between atoms: C28_28  and  C34_34 

>  <TORSDO>
F 7

$$$$
all.pdbqt
 OpenBabel04112516173D

 38 42  0  0  0  0  0  0  0  0999 V2000
   63.1590   50.4450   48.2980 F   0  0  0  0  0  0  0  0  0  0  0  0
   64.7950   49.0090   51.0010 N   0  0  0  0  0  0  0  0  0  0  0  0
   66.1200   50.4970   50.0640 N   0  0  0  0  0  0  0  0  0  0  0  0
   63.8230   49.1800   50.1970 C   0  0  0  0  0  0  0  0  0  0  0  0
   65.9050   49.6260   50.9600 C   0  0  0  0  0  0  0  0  0  0  0  0
   64.0290   50.1050   49.2340 C   0  0  0  0  0  0  0  0  0  0  0  0
   65.2130   50.7350   49.2220 C   0  0  0  0  0  3  0  0  0  0  0  0
   66.8580   49.4290   51.7820 N   0  0  0  0  0  0  0  0  0  0  0  0
   67.4160   50.2970   51.9910 H   0  0  0  0  0  0  0  0  0  0  0  0
   67.2640   48.3920   52.3990 C   0  0  0  0  0  0  0  0  0  0  0  0
   66.9510   48.0710   53.5870 N   0  0  0  0  0  0  0  0  0  0  0  0
   67.4100   47.0160   54.1120 C   0  0  0  0  0  3  0  0  0  0  0  0
   68.2410   46.1570   53.5010 C   0  0  0  0  0  0  0  0  0  0  0  0
   68.5890   46.4720   52.2440 C   0  0  0  0  0  3  0  0  0  0  0  0
   68.0950   47.5940   51.6990 C   0  0  0  0  0  3  0  0  0  0  0  0
   68.7450   44.9120   54.1970 C   0  0  0  0  0  2  0  0  0  0  0  0
   70.2020   44.9090   54.2660 N   0  0  0  0  0  0  0  0  0  0  0  0
   70.7500   43.6670   53.7440 C   0  0  0  0  0  2  0  0  0  0  0  0
   72.2870   43.6850   53.7890 C   0  0  0  0  0  2  0  0  0  0  0  0
   72.7750   43.8880   55.1460 N   0  0  0  0  0  0  0  0  0  0  0  0
   72.2190   45.1240   55.6750 C   0  0  0  0  0  2  0  0  0  0  0  0
   70.6810   45.1120   55.6250 C   0  0  0  0  0  2  0  0  0  0  0  0
   74.2340   43.8650   55.1770 C   0  0  0  0  0  2  0  0  0  0  0  0
   74.8600   45.0430   55.9420 C   0  0  0  0  0  1  0  0  0  0  0  0
   62.7000   48.4320   50.3860 C   0  0  0  0  0  0  0  0  0  0  0  0
   61.4770   48.9260   50.0680 C   0  0  0  0  0  3  0  0  0  0  0  0
   60.3230   48.2560   50.2290 C   0  0  0  0  0  0  0  0  0  0  0  0
   60.3830   47.0180   50.7310 C   0  0  0  0  0  0  0  0  0  0  0  0
   59.1620   48.8030   49.9010 F   0  0  0  0  0  0  0  0  0  0  0  0
   59.4510   46.1990   50.9770 N   0  0  0  0  0  0  0  0  0  0  0  0
   61.5690   46.4860   51.0530 C   0  0  0  0  0  0  0  0  0  0  0  0
   60.0020   45.1570   51.4470 C   0  0  0  0  0  0  0  0  0  0  0  0
   61.2600   45.3340   51.4840 N   0  0  0  0  0  0  0  0  0  0  0  0
   59.1060   44.0200   51.8520 C   0  0  0  0  0  1  0  0  0  0  0  0
   62.7060   47.1770   50.8910 C   0  0  0  0  0  3  0  0  0  0  0  0
   62.2480   44.3470   51.9740 C   0  0  0  0  0  3  0  0  0  0  0  0
   62.2660   42.9900   51.2500 C   0  0  0  0  0  1  0  0  0  0  0  0
   62.1080   44.1670   53.4930 C   0  0  0  0  0  1  0  0  0  0  0  0
  1  6  1  0  0  0  0
  3  5  1  0  0  0  0
  4 25  1  0  0  0  0
  4  2  1  0  0  0  0
  5  2  2  0  0  0  0
  5  8  1  0  0  0  0
  6  4  2  0  0  0  0
  7  6  1  0  0  0  0
  7  3  2  0  0  0  0
  8  9  1  0  0  0  0
  8 10  1  0  0  0  0
 10 11  1  0  0  0  0
 11 12  2  0  0  0  0
 13 12  1  0  0  0  0
 13 16  1  0  0  0  0
 14 13  2  0  0  0  0
 15 14  1  0  0  0  0
 15 10  2  0  0  0  0
 16 17  1  0  0  0  0
 17 22  1  0  0  0  0
 18 19  1  0  0  0  0
 18 17  1  0  0  0  0
 19 20  1  0  0  0  0
 20 23  1  0  0  0  0
 20 21  1  0  0  0  0
 22 21  1  0  0  0  0
 23 24  1  0  0  0  0
 25 35  1  0  0  0  0
 26 27  1  0  0  0  0
 26 25  2  0  0  0  0
 27 28  2  0  0  0  0
 28 30  1  0  0  0  0
 28 31  1  0  0  0  0
 29 27  1  0  0  0  0
 30 32  2  0  0  0  0
 31 33  1  0  0  0  0
 32 33  1  0  0  0  0
 32 34  1  0  0  0  0
 33 36  1  0  0  0  0
 35 31  2  0  0  0  0
 36 38  1  0  0  0  0
 37 36  1  0  0  0  0
M  END
>  <MODEL>
52

>  <REMARK>
 VINA RESULT:    -7.966      3.878      9.575
 INTER + INTRA:         -12.102
 INTER:                 -11.001
 INTRA:                  -1.101
 UNBOUND:                -0.876
  7 active torsions:
  status: ('A' for Active; 'I' for Inactive)
    1  A    between atoms: N3_3  and  C15_15 
    2  A    between atoms: N4_4  and  C16_16 
    3  A    between atoms: N5_5  and  C19_19 
    4  A    between atoms: N8_8  and  C31_31 
    5  A    between atoms: N8_8  and  C35_35 
    6  A    between atoms: C15_15  and  C17_17 
    7  A    between atoms: C28_28  and  C34_34 

>  <TORSDO>
F 7

$$$$
all.pdbqt
 OpenBabel04112516173D

 38 42  0  0  0  0  0  0  0  0999 V2000
   64.7260   48.9590   52.7330 F   0  0  0  0  0  0  0  0  0  0  0  0
   67.9300   48.5670   51.4560 N   0  0  0  0  0  0  0  0  0  0  0  0
   67.5850   47.0520   53.0160 N   0  0  0  0  0  0  0  0  0  0  0  0
   66.7810   49.1080   51.5490 C   0  0  0  0  0  0  0  0  0  0  0  0
   68.3400   47.5820   52.1460 C   0  0  0  0  0  0  0  0  0  0  0  0
   65.9590   48.5590   52.4690 C   0  0  0  0  0  0  0  0  0  0  0  0
   66.4270   47.5210   53.1780 C   0  0  0  0  0  3  0  0  0  0  0  0
   69.4980   47.0630   52.0260 N   0  0  0  0  0  0  0  0  0  0  0  0
   70.2220   47.7380   51.6680 H   0  0  0  0  0  0  0  0  0  0  0  0
   69.9460   45.8940   52.2560 C   0  0  0  0  0  0  0  0  0  0  0  0
   70.8530   45.6050   53.0960 N   0  0  0  0  0  0  0  0  0  0  0  0
   71.2310   44.4080   53.2500 C   0  0  0  0  0  3  0  0  0  0  0  0
   70.7390   43.3580   52.5740 C   0  0  0  0  0  0  0  0  0  0  0  0
   69.7790   43.6350   51.6780 C   0  0  0  0  0  3  0  0  0  0  0  0
   69.3870   44.9090   51.5250 C   0  0  0  0  0  3  0  0  0  0  0  0
   71.2420   41.9520   52.8170 C   0  0  0  0  0  2  0  0  0  0  0  0
   70.6870   41.4070   54.0500 N   0  0  0  0  0  0  0  0  0  0  0  0
   71.7270   40.8180   54.8790 C   0  0  0  0  0  2  0  0  0  0  0  0
   71.1390   40.2760   56.1920 C   0  0  0  0  0  2  0  0  0  0  0  0
   70.1090   39.2770   55.9390 N   0  0  0  0  0  0  0  0  0  0  0  0
   69.0730   39.8600   55.1000 C   0  0  0  0  0  2  0  0  0  0  0  0
   69.6600   40.4100   53.7880 C   0  0  0  0  0  2  0  0  0  0  0  0
   69.5880   38.7460   57.1950 C   0  0  0  0  0  2  0  0  0  0  0  0
   69.6170   39.7530   58.3570 C   0  0  0  0  0  1  0  0  0  0  0  0
   66.5050   50.1610   50.7300 C   0  0  0  0  0  0  0  0  0  0  0  0
   67.4970   50.9730   50.2850 C   0  0  0  0  0  3  0  0  0  0  0  0
   67.3070   52.0330   49.4820 C   0  0  0  0  0  0  0  0  0  0  0  0
   66.0580   52.3050   49.0900 C   0  0  0  0  0  0  0  0  0  0  0  0
   68.3240   52.7870   49.0900 F   0  0  0  0  0  0  0  0  0  0  0  0
   65.6270   53.2350   48.3480 N   0  0  0  0  0  0  0  0  0  0  0  0
   65.0470   51.5270   49.4970 C   0  0  0  0  0  0  0  0  0  0  0  0
   64.3710   53.0800   48.2680 C   0  0  0  0  0  0  0  0  0  0  0  0
   64.0350   52.0600   48.9490 N   0  0  0  0  0  0  0  0  0  0  0  0
   63.5980   54.0800   47.4550 C   0  0  0  0  0  1  0  0  0  0  0  0
   65.2600   50.4800   50.3040 C   0  0  0  0  0  3  0  0  0  0  0  0
   62.6520   51.5540   49.1050 C   0  0  0  0  0  3  0  0  0  0  0  0
   62.1200   51.4720   50.5440 C   0  0  0  0  0  1  0  0  0  0  0  0
   62.4950   50.2110   48.3740 C   0  0  0  0  0  1  0  0  0  0  0  0
  2  4  1  0  0  0  0
  2  5  2  0  0  0  0
  3  7  2  0  0  0  0
  4  6  2  0  0  0  0
  5  3  1  0  0  0  0
  6  1  1  0  0  0  0
  6  7  1  0  0  0  0
  8  5  1  0  0  0  0
  8 10  1  0  0  0  0
  9  8  1  0  0  0  0
 10 11  1  0  0  0  0
 11 12  2  0  0  0  0
 13 16  1  0  0  0  0
 13 12  1  0  0  0  0
 14 13  2  0  0  0  0
 15 14  1  0  0  0  0
 15 10  2  0  0  0  0
 16 17  1  0  0  0  0
 17 18  1  0  0  0  0
 18 19  1  0  0  0  0
 20 19  1  0  0  0  0
 20 23  1  0  0  0  0
 21 20  1  0  0  0  0
 22 17  1  0  0  0  0
 22 21  1  0  0  0  0
 23 24  1  0  0  0  0
 25  4  1  0  0  0  0
 26 25  2  0  0  0  0
 27 26  1  0  0  0  0
 28 27  2  0  0  0  0
 28 31  1  0  0  0  0
 29 27  1  0  0  0  0
 30 28  1  0  0  0  0
 31 35  2  0  0  0  0
 32 30  2  0  0  0  0
 32 33  1  0  0  0  0
 33 36  1  0  0  0  0
 33 31  1  0  0  0  0
 34 32  1  0  0  0  0
 35 25  1  0  0  0  0
 36 37  1  0  0  0  0
 38 36  1  0  0  0  0
M  END
>  <MODEL>
53

>  <REMARK>
 VINA RESULT:    -7.965      5.368      7.783
 INTER + INTRA:         -12.101
 INTER:                 -11.405
 INTRA:                  -0.696
 UNBOUND:                -0.876
  7 active torsions:
  status: ('A' for Active; 'I' for Inactive)
    1  A    between atoms: N3_3  and  C15_15 
    2  A    between atoms: N4_4  and  C16_16 
    3  A    between atoms: N5_5  and  C19_19 
    4  A    between atoms: N8_8  and  C31_31 
    5  A    between atoms: N8_8  and  C35_35 
    6  A    between atoms: C15_15  and  C17_17 
    7  A    between atoms: C28_28  and  C34_34 

>  <TORSDO>
F 7

$$$$
all.pdbqt
 OpenBabel04112516173D

 38 42  0  0  0  0  0  0  0  0999 V2000
   69.4670   41.7600   54.5950 F   0  0  0  0  0  0  0  0  0  0  0  0
   67.7240   44.7540   54.7880 N   0  0  0  0  0  0  0  0  0  0  0  0
   69.5560   45.0620   53.6070 N   0  0  0  0  0  0  0  0  0  0  0  0
   67.9260   43.5190   55.0180 C   0  0  0  0  0  0  0  0  0  0  0  0
   68.4870   45.5160   54.1160 C   0  0  0  0  0  0  0  0  0  0  0  0
   69.0600   43.0120   54.4840 C   0  0  0  0  0  0  0  0  0  0  0  0
   69.8400   43.8470   53.7820 C   0  0  0  0  0  3  0  0  0  0  0  0
   68.2520   46.7500   53.9040 N   0  0  0  0  0  0  0  0  0  0  0  0
   68.9850   47.3890   54.3050 H   0  0  0  0  0  0  0  0  0  0  0  0
   67.3070   47.3570   53.3030 C   0  0  0  0  0  0  0  0  0  0  0  0
   66.9950   48.5770   53.4650 N   0  0  0  0  0  0  0  0  0  0  0  0
   66.0360   49.0880   52.8180 C   0  0  0  0  0  3  0  0  0  0  0  0
   65.2760   48.4290   51.9300 C   0  0  0  0  0  0  0  0  0  0  0  0
   65.5840   47.1360   51.7390 C   0  0  0  0  0  3  0  0  0  0  0  0
   66.6040   46.6070   52.4320 C   0  0  0  0  0  3  0  0  0  0  0  0
   64.1460   49.1120   51.1920 C   0  0  0  0  0  2  0  0  0  0  0  0
   64.6110   50.3310   50.5420 N   0  0  0  0  0  0  0  0  0  0  0  0
   63.4990   51.2110   50.2170 C   0  0  0  0  0  2  0  0  0  0  0  0
   64.0000   52.5080   49.5630 C   0  0  0  0  0  2  0  0  0  0  0  0
   64.7580   52.2310   48.3490 N   0  0  0  0  0  0  0  0  0  0  0  0
   65.8640   51.3420   48.6680 C   0  0  0  0  0  2  0  0  0  0  0  0
   65.3660   50.0460   49.3310 C   0  0  0  0  0  2  0  0  0  0  0  0
   65.1940   53.4740   47.7210 C   0  0  0  0  0  2  0  0  0  0  0  0
   64.3920   54.7100   48.1610 C   0  0  0  0  0  1  0  0  0  0  0  0
   67.0020   42.8480   55.7600 C   0  0  0  0  0  0  0  0  0  0  0  0
   67.3730   42.1530   56.8660 C   0  0  0  0  0  3  0  0  0  0  0  0
   66.5260   41.4620   57.6460 C   0  0  0  0  0  0  0  0  0  0  0  0
   65.2290   41.4610   57.3160 C   0  0  0  0  0  0  0  0  0  0  0  0
   66.9580   40.8010   58.7100 F   0  0  0  0  0  0  0  0  0  0  0  0
   64.2510   40.8910   57.8810 N   0  0  0  0  0  0  0  0  0  0  0  0
   64.8160   42.1380   56.2380 C   0  0  0  0  0  0  0  0  0  0  0  0
   63.2220   41.1810   57.1980 C   0  0  0  0  0  0  0  0  0  0  0  0
   63.5660   41.9260   56.2270 N   0  0  0  0  0  0  0  0  0  0  0  0
   61.9080   40.6040   57.6430 C   0  0  0  0  0  1  0  0  0  0  0  0
   65.6810   42.8140   55.4700 C   0  0  0  0  0  3  0  0  0  0  0  0
   62.6470   42.4720   55.2030 C   0  0  0  0  0  3  0  0  0  0  0  0
   62.9670   42.1100   53.7430 C   0  0  0  0  0  1  0  0  0  0  0  0
   62.4990   43.9910   55.3810 C   0  0  0  0  0  1  0  0  0  0  0  0
  2  4  1  0  0  0  0
  3  7  2  0  0  0  0
  3  5  1  0  0  0  0
  4 25  1  0  0  0  0
  5  2  2  0  0  0  0
  6  1  1  0  0  0  0
  6  4  2  0  0  0  0
  7  6  1  0  0  0  0
  8  5  1  0  0  0  0
  8  9  1  0  0  0  0
 10 11  1  0  0  0  0
 10  8  1  0  0  0  0
 12 11  2  0  0  0  0
 13 12  1  0  0  0  0
 14 13  2  0  0  0  0
 14 15  1  0  0  0  0
 15 10  2  0  0  0  0
 16 13  1  0  0  0  0
 17 16  1  0  0  0  0
 18 17  1  0  0  0  0
 19 18  1  0  0  0  0
 20 21  1  0  0  0  0
 20 19  1  0  0  0  0
 21 22  1  0  0  0  0
 22 17  1  0  0  0  0
 23 24  1  0  0  0  0
 23 20  1  0  0  0  0
 25 26  1  0  0  0  0
 26 27  2  0  0  0  0
 27 29  1  0  0  0  0
 28 27  1  0  0  0  0
 28 30  1  0  0  0  0
 31 28  2  0  0  0  0
 32 34  1  0  0  0  0
 32 30  2  0  0  0  0
 33 31  1  0  0  0  0
 33 32  1  0  0  0  0
 35 25  2  0  0  0  0
 35 31  1  0  0  0  0
 36 38  1  0  0  0  0
 36 33  1  0  0  0  0
 37 36  1  0  0  0  0
M  END
>  <MODEL>
54

>  <REMARK>
 VINA RESULT:    -7.960      4.458     10.149
 INTER + INTRA:         -12.094
 INTER:                 -11.100
 INTRA:                  -0.995
 UNBOUND:                -0.876
  7 active torsions:
  status: ('A' for Active; 'I' for Inactive)
    1  A    between atoms: N3_3  and  C15_15 
    2  A    between atoms: N4_4  and  C16_16 
    3  A    between atoms: N5_5  and  C19_19 
    4  A    between atoms: N8_8  and  C31_31 
    5  A    between atoms: N8_8  and  C35_35 
    6  A    between atoms: C15_15  and  C17_17 
    7  A    between atoms: C28_28  and  C34_34 

>  <TORSDO>
F 7

$$$$
all.pdbqt
 OpenBabel04112516173D

 38 42  0  0  0  0  0  0  0  0999 V2000
   60.9990   48.6770   47.7810 F   0  0  0  0  0  0  0  0  0  0  0  0
   59.7780   46.9980   50.5620 N   0  0  0  0  0  0  0  0  0  0  0  0
   58.1300   47.3300   49.1400 N   0  0  0  0  0  0  0  0  0  0  0  0
   60.6730   47.5620   49.8540 C   0  0  0  0  0  0  0  0  0  0  0  0
   58.5540   46.8730   50.2440 C   0  0  0  0  0  0  0  0  0  0  0  0
   60.2440   48.0550   48.6710 C   0  0  0  0  0  0  0  0  0  0  0  0
   58.9460   47.9060   48.3700 C   0  0  0  0  0  3  0  0  0  0  0  0
   57.6830   46.3020   50.9780 N   0  0  0  0  0  0  0  0  0  0  0  0
   57.6440   46.6870   51.9570 H   0  0  0  0  0  0  0  0  0  0  0  0
   56.8550   45.3600   50.7580 C   0  0  0  0  0  0  0  0  0  0  0  0
   55.6350   45.5110   50.4400 N   0  0  0  0  0  0  0  0  0  0  0  0
   54.8910   44.5070   50.2430 C   0  0  0  0  0  3  0  0  0  0  0  0
   55.2900   43.2290   50.3440 C   0  0  0  0  0  0  0  0  0  0  0  0
   56.5750   43.0410   50.6790 C   0  0  0  0  0  3  0  0  0  0  0  0
   57.3530   44.1140   50.8860 C   0  0  0  0  0  3  0  0  0  0  0  0
   54.3390   42.0810   50.0890 C   0  0  0  0  0  2  0  0  0  0  0  0
   54.2260   41.2280   51.2670 N   0  0  0  0  0  0  0  0  0  0  0  0
   53.5290   39.9900   50.9540 C   0  0  0  0  0  2  0  0  0  0  0  0
   53.4450   39.0820   52.1910 C   0  0  0  0  0  2  0  0  0  0  0  0
   52.7620   39.7480   53.2920 N   0  0  0  0  0  0  0  0  0  0  0  0
   53.4500   40.9930   53.5990 C   0  0  0  0  0  2  0  0  0  0  0  0
   53.5420   41.9010   52.3610 C   0  0  0  0  0  2  0  0  0  0  0  0
   52.6570   38.8600   54.4460 C   0  0  0  0  0  2  0  0  0  0  0  0
   51.6130   39.3060   55.4830 C   0  0  0  0  0  1  0  0  0  0  0  0
   61.9410   47.6080   50.3480 C   0  0  0  0  0  0  0  0  0  0  0  0
   62.4550   46.5590   51.0380 C   0  0  0  0  0  3  0  0  0  0  0  0
   63.6920   46.5290   51.5620 C   0  0  0  0  0  0  0  0  0  0  0  0
   64.4720   47.6020   51.3880 C   0  0  0  0  0  0  0  0  0  0  0  0
   64.1280   45.4700   52.2290 F   0  0  0  0  0  0  0  0  0  0  0  0
   65.6550   47.8140   51.7830 N   0  0  0  0  0  0  0  0  0  0  0  0
   64.0100   48.6580   50.7080 C   0  0  0  0  0  0  0  0  0  0  0  0
   65.9670   48.9750   51.3770 C   0  0  0  0  0  0  0  0  0  0  0  0
   64.9860   49.4670   50.7360 N   0  0  0  0  0  0  0  0  0  0  0  0
   67.3320   49.4920   51.7360 C   0  0  0  0  0  1  0  0  0  0  0  0
   62.7700   48.6680   50.2010 C   0  0  0  0  0  3  0  0  0  0  0  0
   64.9620   50.8080   50.1090 C   0  0  0  0  0  3  0  0  0  0  0  0
   63.6670   51.6170   50.2900 C   0  0  0  0  0  1  0  0  0  0  0  0
   65.3530   50.7060   48.6260 C   0  0  0  0  0  1  0  0  0  0  0  0
  1  6  1  0  0  0  0
  3  5  1  0  0  0  0
  4 25  1  0  0  0  0
  4  2  1  0  0  0  0
  5  2  2  0  0  0  0
  5  8  1  0  0  0  0
  6  4  2  0  0  0  0
  7  6  1  0  0  0  0
  7  3  2  0  0  0  0
  8  9  1  0  0  0  0
 10 15  1  0  0  0  0
 10  8  1  0  0  0  0
 11 10  2  0  0  0  0
 12 13  2  0  0  0  0
 12 11  1  0  0  0  0
 13 14  1  0  0  0  0
 14 15  2  0  0  0  0
 16 13  1  0  0  0  0
 16 17  1  0  0  0  0
 17 22  1  0  0  0  0
 18 17  1  0  0  0  0
 18 19  1  0  0  0  0
 19 20  1  0  0  0  0
 20 21  1  0  0  0  0
 20 23  1  0  0  0  0
 22 21  1  0  0  0  0
 23 24  1  0  0  0  0
 25 26  1  0  0  0  0
 26 27  2  0  0  0  0
 27 29  1  0  0  0  0
 28 27  1  0  0  0  0
 28 30  1  0  0  0  0
 31 33  1  0  0  0  0
 31 28  2  0  0  0  0
 32 34  1  0  0  0  0
 32 30  2  0  0  0  0
 33 32  1  0  0  0  0
 35 25  2  0  0  0  0
 35 31  1  0  0  0  0
 36 37  1  0  0  0  0
 36 33  1  0  0  0  0
 38 36  1  0  0  0  0
M  END
>  <MODEL>
55

>  <REMARK>
 VINA RESULT:    -7.958      3.241      5.986
 INTER + INTRA:         -12.092
 INTER:                 -11.291
 INTRA:                  -0.800
 UNBOUND:                -0.876
  7 active torsions:
  status: ('A' for Active; 'I' for Inactive)
    1  A    between atoms: N3_3  and  C15_15 
    2  A    between atoms: N4_4  and  C16_16 
    3  A    between atoms: N5_5  and  C19_19 
    4  A    between atoms: N8_8  and  C31_31 
    5  A    between atoms: N8_8  and  C35_35 
    6  A    between atoms: C15_15  and  C17_17 
    7  A    between atoms: C28_28  and  C34_34 

>  <TORSDO>
F 7

$$$$
all.pdbqt
 OpenBabel04112516173D

 38 42  0  0  0  0  0  0  0  0999 V2000
   62.6560   50.7840   49.1290 F   0  0  0  0  0  0  0  0  0  0  0  0
   64.8210   48.9580   51.1330 N   0  0  0  0  0  0  0  0  0  0  0  0
   65.8930   50.6970   50.3130 N   0  0  0  0  0  0  0  0  0  0  0  0
   63.7100   49.2160   50.5700 C   0  0  0  0  0  0  0  0  0  0  0  0
   65.8810   49.6500   51.0280 C   0  0  0  0  0  0  0  0  0  0  0  0
   63.6980   50.3280   49.8030 C   0  0  0  0  0  0  0  0  0  0  0  0
   64.8350   51.0330   49.7150 C   0  0  0  0  0  3  0  0  0  0  0  0
   66.9790   49.3630   51.6080 N   0  0  0  0  0  0  0  0  0  0  0  0
   67.7020   50.1240   51.5360 H   0  0  0  0  0  0  0  0  0  0  0  0
   67.3680   48.3390   52.2580 C   0  0  0  0  0  0  0  0  0  0  0  0
   67.0870   48.0840   53.4700 N   0  0  0  0  0  0  0  0  0  0  0  0
   67.5240   47.0360   54.0260 C   0  0  0  0  0  3  0  0  0  0  0  0
   68.3000   46.1190   53.4260 C   0  0  0  0  0  0  0  0  0  0  0  0
   68.6130   46.3640   52.1450 C   0  0  0  0  0  3  0  0  0  0  0  0
   68.1420   47.4790   51.5660 C   0  0  0  0  0  3  0  0  0  0  0  0
   68.7830   44.8880   54.1600 C   0  0  0  0  0  2  0  0  0  0  0  0
   70.2380   44.8730   54.2500 N   0  0  0  0  0  0  0  0  0  0  0  0
   70.7780   43.5930   53.8170 C   0  0  0  0  0  2  0  0  0  0  0  0
   72.3140   43.5960   53.8820 C   0  0  0  0  0  2  0  0  0  0  0  0
   72.7860   43.8810   55.2300 N   0  0  0  0  0  0  0  0  0  0  0  0
   72.2390   45.1560   55.6700 C   0  0  0  0  0  2  0  0  0  0  0  0
   70.7020   45.1580   55.5990 C   0  0  0  0  0  2  0  0  0  0  0  0
   74.2450   43.8440   55.2820 C   0  0  0  0  0  2  0  0  0  0  0  0
   74.9160   45.1790   54.9170 C   0  0  0  0  0  1  0  0  0  0  0  0
   62.6700   48.3650   50.7910 C   0  0  0  0  0  0  0  0  0  0  0  0
   62.7980   47.3230   51.6520 C   0  0  0  0  0  3  0  0  0  0  0  0
   61.8240   46.4370   51.9200 C   0  0  0  0  0  0  0  0  0  0  0  0
   60.6480   46.5930   51.3020 C   0  0  0  0  0  0  0  0  0  0  0  0
   62.0210   45.4390   52.7690 F   0  0  0  0  0  0  0  0  0  0  0  0
   59.5930   45.8990   51.3840 N   0  0  0  0  0  0  0  0  0  0  0  0
   60.4730   47.6110   50.4510 C   0  0  0  0  0  0  0  0  0  0  0  0
   58.7460   46.4390   50.6100 C   0  0  0  0  0  0  0  0  0  0  0  0
   59.2750   47.4580   50.0630 N   0  0  0  0  0  0  0  0  0  0  0  0
   57.3950   45.7900   50.4970 C   0  0  0  0  0  1  0  0  0  0  0  0
   61.4610   48.4780   50.1930 C   0  0  0  0  0  3  0  0  0  0  0  0
   58.6040   48.3520   49.0920 C   0  0  0  0  0  3  0  0  0  0  0  0
   57.1370   48.7000   49.3930 C   0  0  0  0  0  1  0  0  0  0  0  0
   58.7650   47.8000   47.6670 C   0  0  0  0  0  1  0  0  0  0  0  0
  1  6  1  0  0  0  0
  3  5  1  0  0  0  0
  4 25  1  0  0  0  0
  4  2  1  0  0  0  0
  5  2  2  0  0  0  0
  5  8  1  0  0  0  0
  6  4  2  0  0  0  0
  7  6  1  0  0  0  0
  7  3  2  0  0  0  0
  8 10  1  0  0  0  0
  9  8  1  0  0  0  0
 10 11  1  0  0  0  0
 11 12  2  0  0  0  0
 13 12  1  0  0  0  0
 13 16  1  0  0  0  0
 14 13  2  0  0  0  0
 15 14  1  0  0  0  0
 15 10  2  0  0  0  0
 16 17  1  0  0  0  0
 17 22  1  0  0  0  0
 18 19  1  0  0  0  0
 18 17  1  0  0  0  0
 19 20  1  0  0  0  0
 20 23  1  0  0  0  0
 20 21  1  0  0  0  0
 22 21  1  0  0  0  0
 24 23  1  0  0  0  0
 25 26  1  0  0  0  0
 26 27  2  0  0  0  0
 27 29  1  0  0  0  0
 28 30  1  0  0  0  0
 28 27  1  0  0  0  0
 31 28  2  0  0  0  0
 32 30  2  0  0  0  0
 33 31  1  0  0  0  0
 33 32  1  0  0  0  0
 34 32  1  0  0  0  0
 35 31  1  0  0  0  0
 35 25  2  0  0  0  0
 36 37  1  0  0  0  0
 36 33  1  0  0  0  0
 38 36  1  0  0  0  0
M  END
>  <MODEL>
56

>  <REMARK>
 VINA RESULT:    -7.952      3.929      9.350
 INTER + INTRA:         -12.082
 INTER:                 -11.314
 INTRA:                  -0.768
 UNBOUND:                -0.876
  7 active torsions:
  status: ('A' for Active; 'I' for Inactive)
    1  A    between atoms: N3_3  and  C15_15 
    2  A    between atoms: N4_4  and  C16_16 
    3  A    between atoms: N5_5  and  C19_19 
    4  A    between atoms: N8_8  and  C31_31 
    5  A    between atoms: N8_8  and  C35_35 
    6  A    between atoms: C15_15  and  C17_17 
    7  A    between atoms: C28_28  and  C34_34 

>  <TORSDO>
F 7

$$$$
all.pdbqt
 OpenBabel04112516173D

 38 42  0  0  0  0  0  0  0  0999 V2000
   54.3240   44.8330   58.0480 F   0  0  0  0  0  0  0  0  0  0  0  0
   55.5390   43.3740   55.1430 N   0  0  0  0  0  0  0  0  0  0  0  0
   55.0850   45.4930   54.7500 N   0  0  0  0  0  0  0  0  0  0  0  0
   55.1860   43.3930   56.3650 C   0  0  0  0  0  0  0  0  0  0  0  0
   55.5010   44.3650   54.3480 C   0  0  0  0  0  0  0  0  0  0  0  0
   54.7390   44.5850   56.8180 C   0  0  0  0  0  0  0  0  0  0  0  0
   54.7130   45.6070   55.9490 C   0  0  0  0  0  3  0  0  0  0  0  0
   55.8640   44.3110   53.1270 N   0  0  0  0  0  0  0  0  0  0  0  0
   55.0710   44.1110   52.4640 H   0  0  0  0  0  0  0  0  0  0  0  0
   56.9930   44.4530   52.5570 C   0  0  0  0  0  0  0  0  0  0  0  0
   58.0550   43.8260   52.8580 N   0  0  0  0  0  0  0  0  0  0  0  0
   59.1310   44.0410   52.2280 C   0  0  0  0  0  3  0  0  0  0  0  0
   59.2640   44.9160   51.2190 C   0  0  0  0  0  0  0  0  0  0  0  0
   58.1570   45.5940   50.8810 C   0  0  0  0  0  3  0  0  0  0  0  0
   57.0220   45.3560   51.5560 C   0  0  0  0  0  3  0  0  0  0  0  0
   60.5870   45.1150   50.5130 C   0  0  0  0  0  2  0  0  0  0  0  0
   60.7820   46.5160   50.1600 N   0  0  0  0  0  0  0  0  0  0  0  0
   60.8540   46.6890   48.7170 C   0  0  0  0  0  2  0  0  0  0  0  0
   61.0250   48.1720   48.3510 C   0  0  0  0  0  2  0  0  0  0  0  0
   62.2260   48.7320   48.9580 N   0  0  0  0  0  0  0  0  0  0  0  0
   62.1620   48.5500   50.4010 C   0  0  0  0  0  2  0  0  0  0  0  0
   61.9830   47.0680   50.7690 C   0  0  0  0  0  2  0  0  0  0  0  0
   62.3940   50.1300   48.5710 C   0  0  0  0  0  2  0  0  0  0  0  0
   62.2280   51.1230   49.7330 C   0  0  0  0  0  1  0  0  0  0  0  0
   55.2910   42.2360   57.0770 C   0  0  0  0  0  0  0  0  0  0  0  0
   54.6050   41.1270   56.7030 C   0  0  0  0  0  3  0  0  0  0  0  0
   54.6500   39.9520   57.3530 C   0  0  0  0  0  0  0  0  0  0  0  0
   55.4260   39.8670   58.4390 C   0  0  0  0  0  0  0  0  0  0  0  0
   53.9490   38.9090   56.9340 F   0  0  0  0  0  0  0  0  0  0  0  0
   55.6310   38.8870   59.2130 N   0  0  0  0  0  0  0  0  0  0  0  0
   56.1280   40.9340   58.8420 C   0  0  0  0  0  0  0  0  0  0  0  0
   56.4410   39.2920   60.1010 C   0  0  0  0  0  0  0  0  0  0  0  0
   56.7350   40.5070   59.8700 N   0  0  0  0  0  0  0  0  0  0  0  0
   56.8380   38.3180   61.1750 C   0  0  0  0  0  1  0  0  0  0  0  0
   56.0610   42.0980   58.1820 C   0  0  0  0  0  3  0  0  0  0  0  0
   57.6510   41.3340   60.6880 C   0  0  0  0  0  3  0  0  0  0  0  0
   59.0830   40.7990   60.8520 C   0  0  0  0  0  1  0  0  0  0  0  0
   57.0110   41.6430   62.0500 C   0  0  0  0  0  1  0  0  0  0  0  0
  2  4  1  0  0  0  0
  3  7  2  0  0  0  0
  4  6  2  0  0  0  0
  4 25  1  0  0  0  0
  5  3  1  0  0  0  0
  5  2  2  0  0  0  0
  6  1  1  0  0  0  0
  7  6  1  0  0  0  0
  8  5  1  0  0  0  0
  9  8  1  0  0  0  0
 10 11  1  0  0  0  0
 10  8  1  0  0  0  0
 12 11  2  0  0  0  0
 13 12  1  0  0  0  0
 14 13  2  0  0  0  0
 14 15  1  0  0  0  0
 15 10  2  0  0  0  0
 16 13  1  0  0  0  0
 17 16  1  0  0  0  0
 17 22  1  0  0  0  0
 18 17  1  0  0  0  0
 19 18  1  0  0  0  0
 19 20  1  0  0  0  0
 20 21  1  0  0  0  0
 21 22  1  0  0  0  0
 23 20  1  0  0  0  0
 23 24  1  0  0  0  0
 25 35  1  0  0  0  0
 26 25  2  0  0  0  0
 26 27  1  0  0  0  0
 27 28  2  0  0  0  0
 28 31  1  0  0  0  0
 28 30  1  0  0  0  0
 29 27  1  0  0  0  0
 30 32  2  0  0  0  0
 31 33  1  0  0  0  0
 32 34  1  0  0  0  0
 33 32  1  0  0  0  0
 33 36  1  0  0  0  0
 35 31  2  0  0  0  0
 36 37  1  0  0  0  0
 36 38  1  0  0  0  0
M  END
>  <MODEL>
57

>  <REMARK>
 VINA RESULT:    -7.935      5.215     13.069
 INTER + INTRA:         -12.059
 INTER:                 -10.960
 INTRA:                  -1.099
 UNBOUND:                -0.876
  7 active torsions:
  status: ('A' for Active; 'I' for Inactive)
    1  A    between atoms: N3_3  and  C15_15 
    2  A    between atoms: N4_4  and  C16_16 
    3  A    between atoms: N5_5  and  C19_19 
    4  A    between atoms: N8_8  and  C31_31 
    5  A    between atoms: N8_8  and  C35_35 
    6  A    between atoms: C15_15  and  C17_17 
    7  A    between atoms: C28_28  and  C34_34 

>  <TORSDO>
F 7

$$$$
all.pdbqt
 OpenBabel04112516173D

 38 42  0  0  0  0  0  0  0  0999 V2000
   59.9270   42.3020   54.4140 F   0  0  0  0  0  0  0  0  0  0  0  0
   58.8240   44.0350   51.6160 N   0  0  0  0  0  0  0  0  0  0  0  0
   61.0240   44.0850   51.6740 N   0  0  0  0  0  0  0  0  0  0  0  0
   58.6840   43.3530   52.6820 C   0  0  0  0  0  0  0  0  0  0  0  0
   59.9310   44.3980   51.1110 C   0  0  0  0  0  0  0  0  0  0  0  0
   59.8350   43.0070   53.2990 C   0  0  0  0  0  0  0  0  0  0  0  0
   60.9850   43.4090   52.7370 C   0  0  0  0  0  3  0  0  0  0  0  0
   60.0350   45.0800   50.0400 N   0  0  0  0  0  0  0  0  0  0  0  0
   59.6970   44.5680   49.1850 H   0  0  0  0  0  0  0  0  0  0  0  0
   60.4630   46.2560   49.8050 C   0  0  0  0  0  0  0  0  0  0  0  0
   60.3320   47.2560   50.5760 N   0  0  0  0  0  0  0  0  0  0  0  0
   60.7950   48.3860   50.2500 C   0  0  0  0  0  3  0  0  0  0  0  0
   61.4460   48.6440   49.1040 C   0  0  0  0  0  0  0  0  0  0  0  0
   61.5980   47.6040   48.2690 C   0  0  0  0  0  3  0  0  0  0  0  0
   61.1020   46.4100   48.6280 C   0  0  0  0  0  3  0  0  0  0  0  0
   61.9730   50.0260   48.7860 C   0  0  0  0  0  2  0  0  0  0  0  0
   63.4190   50.0840   48.9620 N   0  0  0  0  0  0  0  0  0  0  0  0
   63.7930   49.7920   50.3370 C   0  0  0  0  0  2  0  0  0  0  0  0
   65.3200   49.8220   50.5070 C   0  0  0  0  0  2  0  0  0  0  0  0
   65.8700   51.1170   50.1290 N   0  0  0  0  0  0  0  0  0  0  0  0
   65.4880   51.4170   48.7570 C   0  0  0  0  0  2  0  0  0  0  0  0
   63.9600   51.3800   48.5820 C   0  0  0  0  0  2  0  0  0  0  0  0
   67.3160   51.1410   50.3310 C   0  0  0  0  0  2  0  0  0  0  0  0
   68.0700   52.0360   49.3340 C   0  0  0  0  0  1  0  0  0  0  0  0
   57.4180   43.0500   53.0840 C   0  0  0  0  0  0  0  0  0  0  0  0
   56.8970   43.6000   54.2100 C   0  0  0  0  0  3  0  0  0  0  0  0
   55.6630   43.3480   54.6770 C   0  0  0  0  0  0  0  0  0  0  0  0
   54.8930   42.5020   53.9830 C   0  0  0  0  0  0  0  0  0  0  0  0
   55.2210   43.9180   55.7870 F   0  0  0  0  0  0  0  0  0  0  0  0
   53.7130   42.1070   54.2150 N   0  0  0  0  0  0  0  0  0  0  0  0
   55.3610   41.9410   52.8620 C   0  0  0  0  0  0  0  0  0  0  0  0
   53.4100   41.3080   53.2770 C   0  0  0  0  0  0  0  0  0  0  0  0
   54.3920   41.2190   52.4750 N   0  0  0  0  0  0  0  0  0  0  0  0
   52.0520   40.6660   53.3240 C   0  0  0  0  0  1  0  0  0  0  0  0
   56.5990   42.2010   52.4200 C   0  0  0  0  0  3  0  0  0  0  0  0
   54.4260   40.3800   51.2550 C   0  0  0  0  0  3  0  0  0  0  0  0
   55.4880   39.2690   51.2260 C   0  0  0  0  0  1  0  0  0  0  0  0
   54.5140   41.2690   50.0050 C   0  0  0  0  0  1  0  0  0  0  0  0
  2  4  1  0  0  0  0
  3  7  2  0  0  0  0
  4 25  1  0  0  0  0
  4  6  2  0  0  0  0
  5  2  2  0  0  0  0
  5  3  1  0  0  0  0
  6  1  1  0  0  0  0
  7  6  1  0  0  0  0
  8  5  1  0  0  0  0
  9  8  1  0  0  0  0
 10  8  1  0  0  0  0
 10 11  1  0  0  0  0
 12 11  2  0  0  0  0
 13 12  1  0  0  0  0
 14 15  1  0  0  0  0
 14 13  2  0  0  0  0
 15 10  2  0  0  0  0
 16 17  1  0  0  0  0
 16 13  1  0  0  0  0
 17 18  1  0  0  0  0
 18 19  1  0  0  0  0
 20 23  1  0  0  0  0
 20 19  1  0  0  0  0
 21 20  1  0  0  0  0
 22 21  1  0  0  0  0
 22 17  1  0  0  0  0
 24 23  1  0  0  0  0
 25 26  1  0  0  0  0
 26 27  2  0  0  0  0
 27 29  1  0  0  0  0
 28 30  1  0  0  0  0
 28 27  1  0  0  0  0
 31 28  2  0  0  0  0
 32 34  1  0  0  0  0
 32 30  2  0  0  0  0
 33 31  1  0  0  0  0
 33 32  1  0  0  0  0
 35 31  1  0  0  0  0
 35 25  2  0  0  0  0
 36 33  1  0  0  0  0
 37 36  1  0  0  0  0
 38 36  1  0  0  0  0
M  END
>  <MODEL>
58

>  <REMARK>
 VINA RESULT:    -7.906      3.662     11.380
 INTER + INTRA:         -12.018
 INTER:                 -11.096
 INTRA:                  -0.922
 UNBOUND:                -0.876
  7 active torsions:
  status: ('A' for Active; 'I' for Inactive)
    1  A    between atoms: N3_3  and  C15_15 
    2  A    between atoms: N4_4  and  C16_16 
    3  A    between atoms: N5_5  and  C19_19 
    4  A    between atoms: N8_8  and  C31_31 
    5  A    between atoms: N8_8  and  C35_35 
    6  A    between atoms: C15_15  and  C17_17 
    7  A    between atoms: C28_28  and  C34_34 

>  <TORSDO>
F 7

$$$$
all.pdbqt
 OpenBabel04112516173D

 38 42  0  0  0  0  0  0  0  0999 V2000
   61.0970   49.7730   48.4420 F   0  0  0  0  0  0  0  0  0  0  0  0
   62.1970   46.7690   49.7860 N   0  0  0  0  0  0  0  0  0  0  0  0
   60.1120   46.5390   49.1170 N   0  0  0  0  0  0  0  0  0  0  0  0
   62.3080   47.9880   49.4390 C   0  0  0  0  0  0  0  0  0  0  0  0
   61.1580   46.0520   49.6430 C   0  0  0  0  0  0  0  0  0  0  0  0
   61.2060   48.5290   48.8750 C   0  0  0  0  0  0  0  0  0  0  0  0
   60.1280   47.7420   48.7410 C   0  0  0  0  0  3  0  0  0  0  0  0
   61.0820   44.8310   50.0010 N   0  0  0  0  0  0  0  0  0  0  0  0
   61.5880   44.1730   49.3540 H   0  0  0  0  0  0  0  0  0  0  0  0
   60.5160   44.2560   50.9860 C   0  0  0  0  0  0  0  0  0  0  0  0
   59.3470   43.7610   50.9780 N   0  0  0  0  0  0  0  0  0  0  0  0
   58.8740   43.2080   52.0130 C   0  0  0  0  0  3  0  0  0  0  0  0
   59.5240   43.0900   53.1810 C   0  0  0  0  0  0  0  0  0  0  0  0
   60.7630   43.6060   53.2180 C   0  0  0  0  0  3  0  0  0  0  0  0
   61.2530   44.1890   52.1140 C   0  0  0  0  0  3  0  0  0  0  0  0
   58.8900   42.4130   54.3760 C   0  0  0  0  0  2  0  0  0  0  0  0
   57.5030   42.0610   54.0980 N   0  0  0  0  0  0  0  0  0  0  0  0
   56.5860   42.9890   54.7410 C   0  0  0  0  0  2  0  0  0  0  0  0
   55.1270   42.6320   54.4160 C   0  0  0  0  0  2  0  0  0  0  0  0
   54.8070   41.2760   54.8420 N   0  0  0  0  0  0  0  0  0  0  0  0
   55.7300   40.3450   54.2090 C   0  0  0  0  0  2  0  0  0  0  0  0
   57.1910   40.7050   54.5260 C   0  0  0  0  0  2  0  0  0  0  0  0
   53.4080   40.9650   54.5600 C   0  0  0  0  0  2  0  0  0  0  0  0
   52.9330   41.4340   53.1750 C   0  0  0  0  0  1  0  0  0  0  0  0
   63.4990   48.6100   49.6670 C   0  0  0  0  0  0  0  0  0  0  0  0
   64.4230   48.0560   50.4910 C   0  0  0  0  0  3  0  0  0  0  0  0
   65.6160   48.6080   50.7720 C   0  0  0  0  0  0  0  0  0  0  0  0
   65.9160   49.7780   50.1970 C   0  0  0  0  0  0  0  0  0  0  0  0
   66.4700   48.0130   51.5910 F   0  0  0  0  0  0  0  0  0  0  0  0
   66.9570   50.4880   50.3040 N   0  0  0  0  0  0  0  0  0  0  0  0
   65.0370   50.3580   49.3700 C   0  0  0  0  0  0  0  0  0  0  0  0
   66.7740   51.5080   49.5720 C   0  0  0  0  0  0  0  0  0  0  0  0
   65.6340   51.4200   49.0170 N   0  0  0  0  0  0  0  0  0  0  0  0
   67.8650   52.5410   49.5350 C   0  0  0  0  0  1  0  0  0  0  0  0
   63.8500   49.7930   49.1120 C   0  0  0  0  0  3  0  0  0  0  0  0
   65.0550   52.4200   48.0900 C   0  0  0  0  0  3  0  0  0  0  0  0
   63.8990   53.2690   48.6450 C   0  0  0  0  0  1  0  0  0  0  0  0
   64.6680   51.7480   46.7630 C   0  0  0  0  0  1  0  0  0  0  0  0
  1  6  1  0  0  0  0
  3  5  1  0  0  0  0
  4 25  1  0  0  0  0
  4  2  1  0  0  0  0
  5  2  2  0  0  0  0
  5  8  1  0  0  0  0
  6  4  2  0  0  0  0
  7  6  1  0  0  0  0
  7  3  2  0  0  0  0
  8 10  1  0  0  0  0
  9  8  1  0  0  0  0
 10 15  1  0  0  0  0
 11 10  2  0  0  0  0
 11 12  1  0  0  0  0
 12 13  2  0  0  0  0
 13 14  1  0  0  0  0
 13 16  1  0  0  0  0
 15 14  2  0  0  0  0
 17 16  1  0  0  0  0
 17 22  1  0  0  0  0
 17 18  1  0  0  0  0
 19 18  1  0  0  0  0
 19 20  1  0  0  0  0
 21 22  1  0  0  0  0
 21 20  1  0  0  0  0
 23 20  1  0  0  0  0
 24 23  1  0  0  0  0
 25 26  1  0  0  0  0
 26 27  2  0  0  0  0
 27 29  1  0  0  0  0
 28 30  1  0  0  0  0
 28 27  1  0  0  0  0
 31 28  2  0  0  0  0
 32 30  2  0  0  0  0
 33 31  1  0  0  0  0
 33 32  1  0  0  0  0
 34 32  1  0  0  0  0
 35 31  1  0  0  0  0
 35 25  2  0  0  0  0
 36 37  1  0  0  0  0
 36 33  1  0  0  0  0
 38 36  1  0  0  0  0
M  END
>  <MODEL>
59

>  <REMARK>
 VINA RESULT:    -7.897      2.303      4.208
 INTER + INTRA:         -12.005
 INTER:                 -11.244
 INTRA:                  -0.761
 UNBOUND:                -0.876
  7 active torsions:
  status: ('A' for Active; 'I' for Inactive)
    1  A    between atoms: N3_3  and  C15_15 
    2  A    between atoms: N4_4  and  C16_16 
    3  A    between atoms: N5_5  and  C19_19 
    4  A    between atoms: N8_8  and  C31_31 
    5  A    between atoms: N8_8  and  C35_35 
    6  A    between atoms: C15_15  and  C17_17 
    7  A    between atoms: C28_28  and  C34_34 

>  <TORSDO>
F 7

$$$$
all.pdbqt
 OpenBabel04112516173D

 38 42  0  0  0  0  0  0  0  0999 V2000
   40.1600   62.9500   73.7330 F   0  0  0  0  0  0  0  0  0  0  0  0
   41.9490   63.1570   70.7670 N   0  0  0  0  0  0  0  0  0  0  0  0
   42.8950   64.4570   72.2710 N   0  0  0  0  0  0  0  0  0  0  0  0
   41.0140   62.7430   71.5260 C   0  0  0  0  0  0  0  0  0  0  0  0
   42.8620   63.9760   71.0980 C   0  0  0  0  0  0  0  0  0  0  0  0
   41.0300   63.2410   72.7820 C   0  0  0  0  0  0  0  0  0  0  0  0
   42.0080   64.1040   73.0940 C   0  0  0  0  0  3  0  0  0  0  0  0
   43.7840   64.3690   70.3120 N   0  0  0  0  0  0  0  0  0  0  0  0
   44.4060   63.5890   69.9750 H   0  0  0  0  0  0  0  0  0  0  0  0
   44.0970   65.5160   69.8540 C   0  0  0  0  0  0  0  0  0  0  0  0
   43.7670   66.6290   70.3680 N   0  0  0  0  0  0  0  0  0  0  0  0
   44.1290   67.7170   69.8350 C   0  0  0  0  0  3  0  0  0  0  0  0
   44.8670   67.8130   68.7180 C   0  0  0  0  0  0  0  0  0  0  0  0
   45.2290   66.6500   68.1530 C   0  0  0  0  0  3  0  0  0  0  0  0
   44.8390   65.5030   68.7290 C   0  0  0  0  0  3  0  0  0  0  0  0
   45.2620   69.1540   68.1420 C   0  0  0  0  0  2  0  0  0  0  0  0
   46.2580   69.8080   68.9830 N   0  0  0  0  0  0  0  0  0  0  0  0
   46.2900   71.2420   68.7410 C   0  0  0  0  0  2  0  0  0  0  0  0
   47.3180   71.9290   69.6550 C   0  0  0  0  0  2  0  0  0  0  0  0
   48.6530   71.3820   69.4550 N   0  0  0  0  0  0  0  0  0  0  0  0
   48.6220   69.9460   69.6850 C   0  0  0  0  0  2  0  0  0  0  0  0
   47.5890   69.2570   68.7770 C   0  0  0  0  0  2  0  0  0  0  0  0
   49.6230   72.0700   70.3020 C   0  0  0  0  0  2  0  0  0  0  0  0
   51.0200   71.4280   70.2990 C   0  0  0  0  0  1  0  0  0  0  0  0
   40.1150   61.8610   71.0070 C   0  0  0  0  0  0  0  0  0  0  0  0
   39.0130   62.3020   70.3480 C   0  0  0  0  0  3  0  0  0  0  0  0
   38.0780   61.4990   69.8140 C   0  0  0  0  0  0  0  0  0  0  0  0
   38.2440   60.1770   69.9350 C   0  0  0  0  0  0  0  0  0  0  0  0
   37.0230   61.9980   69.1870 F   0  0  0  0  0  0  0  0  0  0  0  0
   37.5120   59.2290   69.5280 N   0  0  0  0  0  0  0  0  0  0  0  0
   39.3200   59.6960   70.5710 C   0  0  0  0  0  0  0  0  0  0  0  0
   38.0840   58.1540   69.8830 C   0  0  0  0  0  0  0  0  0  0  0  0
   39.1590   58.4400   70.4980 N   0  0  0  0  0  0  0  0  0  0  0  0
   37.4020   56.8590   69.5410 C   0  0  0  0  0  1  0  0  0  0  0  0
   40.2360   60.5170   71.1020 C   0  0  0  0  0  3  0  0  0  0  0  0
   40.1050   57.4550   71.0700 C   0  0  0  0  0  3  0  0  0  0  0  0
   40.3360   57.5410   72.5880 C   0  0  0  0  0  1  0  0  0  0  0  0
   41.4340   57.4880   70.3000 C   0  0  0  0  0  1  0  0  0  0  0  0
  2  5  2  0  0  0  0
  2  4  1  0  0  0  0
  3  7  2  0  0  0  0
  4  6  2  0  0  0  0
  5  3  1  0  0  0  0
  6  7  1  0  0  0  0
  6  1  1  0  0  0  0
  8  5  1  0  0  0  0
  9  8  1  0  0  0  0
 10  8  1  0  0  0  0
 10 11  1  0  0  0  0
 12 11  2  0  0  0  0
 13 12  1  0  0  0  0
 14 13  2  0  0  0  0
 14 15  1  0  0  0  0
 15 10  2  0  0  0  0
 16 13  1  0  0  0  0
 16 17  1  0  0  0  0
 18 17  1  0  0  0  0
 18 19  1  0  0  0  0
 20 19  1  0  0  0  0
 20 21  1  0  0  0  0
 20 23  1  0  0  0  0
 22 17  1  0  0  0  0
 22 21  1  0  0  0  0
 24 23  1  0  0  0  0
 25 35  1  0  0  0  0
 25  4  1  0  0  0  0
 26 25  2  0  0  0  0
 27 28  2  0  0  0  0
 27 26  1  0  0  0  0
 28 31  1  0  0  0  0
 29 27  1  0  0  0  0
 30 32  2  0  0  0  0
 30 28  1  0  0  0  0
 31 35  2  0  0  0  0
 32 33  1  0  0  0  0
 33 31  1  0  0  0  0
 33 36  1  0  0  0  0
 34 32  1  0  0  0  0
 36 37  1  0  0  0  0
 38 36  1  0  0  0  0
M  END
>  <MODEL>
60

>  <REMARK>
 VINA RESULT:    -7.886     31.067     34.096
 INTER + INTRA:         -11.989
 INTER:                 -11.188
 INTRA:                  -0.801
 UNBOUND:                -0.876
  7 active torsions:
  status: ('A' for Active; 'I' for Inactive)
    1  A    between atoms: N3_3  and  C15_15 
    2  A    between atoms: N4_4  and  C16_16 
    3  A    between atoms: N5_5  and  C19_19 
    4  A    between atoms: N8_8  and  C31_31 
    5  A    between atoms: N8_8  and  C35_35 
    6  A    between atoms: C15_15  and  C17_17 
    7  A    between atoms: C28_28  and  C34_34 

>  <TORSDO>
F 7

$$$$
all.pdbqt
 OpenBabel04112516173D

 38 42  0  0  0  0  0  0  0  0999 V2000
   65.3240   45.5220   52.5870 F   0  0  0  0  0  0  0  0  0  0  0  0
   62.8070   46.8040   50.5720 N   0  0  0  0  0  0  0  0  0  0  0  0
   62.1780   44.8430   51.3500 N   0  0  0  0  0  0  0  0  0  0  0  0
   63.9410   46.8130   51.1500 C   0  0  0  0  0  0  0  0  0  0  0  0
   61.9440   45.8750   50.6510 C   0  0  0  0  0  0  0  0  0  0  0  0
   64.2120   45.7240   51.9020 C   0  0  0  0  0  0  0  0  0  0  0  0
   63.2780   44.7630   51.9600 C   0  0  0  0  0  3  0  0  0  0  0  0
   60.8160   45.9000   50.0590 N   0  0  0  0  0  0  0  0  0  0  0  0
   60.8710   46.2540   49.0700 H   0  0  0  0  0  0  0  0  0  0  0  0
   59.6400   45.5790   50.4300 C   0  0  0  0  0  0  0  0  0  0  0  0
   59.3230   44.5000   51.0190 N   0  0  0  0  0  0  0  0  0  0  0  0
   58.1220   44.2750   51.3470 C   0  0  0  0  0  3  0  0  0  0  0  0
   57.0980   45.1110   51.1190 C   0  0  0  0  0  0  0  0  0  0  0  0
   57.4060   46.2600   50.4970 C   0  0  0  0  0  3  0  0  0  0  0  0
   58.6830   46.4870   50.1550 C   0  0  0  0  0  3  0  0  0  0  0  0
   55.6870   44.7700   51.5450 C   0  0  0  0  0  2  0  0  0  0  0  0
   55.6930   43.8620   52.6850 N   0  0  0  0  0  0  0  0  0  0  0  0
   54.5950   42.9100   52.6040 C   0  0  0  0  0  2  0  0  0  0  0  0
   54.6280   41.9340   53.7920 C   0  0  0  0  0  2  0  0  0  0  0  0
   54.5510   42.6440   55.0620 N   0  0  0  0  0  0  0  0  0  0  0  0
   55.6400   43.6050   55.1410 C   0  0  0  0  0  2  0  0  0  0  0  0
   55.6140   44.5780   53.9500 C   0  0  0  0  0  2  0  0  0  0  0  0
   54.5450   41.7010   56.1770 C   0  0  0  0  0  2  0  0  0  0  0  0
   53.1590   41.1150   56.4910 C   0  0  0  0  0  1  0  0  0  0  0  0
   64.7470   47.8940   50.9560 C   0  0  0  0  0  0  0  0  0  0  0  0
   65.9110   48.0220   51.6420 C   0  0  0  0  0  3  0  0  0  0  0  0
   66.7560   49.0590   51.5140 C   0  0  0  0  0  0  0  0  0  0  0  0
   66.4330   50.0270   50.6500 C   0  0  0  0  0  0  0  0  0  0  0  0
   67.8750   49.1210   52.2200 F   0  0  0  0  0  0  0  0  0  0  0  0
   67.0530   51.0900   50.3580 N   0  0  0  0  0  0  0  0  0  0  0  0
   65.2980   49.9400   49.9460 C   0  0  0  0  0  0  0  0  0  0  0  0
   66.3510   51.6900   49.4880 C   0  0  0  0  0  0  0  0  0  0  0  0
   65.3120   50.9970   49.2460 N   0  0  0  0  0  0  0  0  0  0  0  0
   66.8530   53.0120   48.9800 C   0  0  0  0  0  1  0  0  0  0  0  0
   64.4660   48.9010   50.0960 C   0  0  0  0  0  3  0  0  0  0  0  0
   64.2450   51.3650   48.2870 C   0  0  0  0  0  3  0  0  0  0  0  0
   64.7120   51.9520   46.9460 C   0  0  0  0  0  1  0  0  0  0  0  0
   63.2150   52.2790   48.9690 C   0  0  0  0  0  1  0  0  0  0  0  0
  2  5  2  0  0  0  0
  2  4  1  0  0  0  0
  3  7  2  0  0  0  0
  4  6  2  0  0  0  0
  5  3  1  0  0  0  0
  6  7  1  0  0  0  0
  6  1  1  0  0  0  0
  8 10  1  0  0  0  0
  8  5  1  0  0  0  0
  9  8  1  0  0  0  0
 10 11  1  0  0  0  0
 11 12  2  0  0  0  0
 13 12  1  0  0  0  0
 13 16  1  0  0  0  0
 14 13  2  0  0  0  0
 15 10  2  0  0  0  0
 15 14  1  0  0  0  0
 16 17  1  0  0  0  0
 17 22  1  0  0  0  0
 18 17  1  0  0  0  0
 18 19  1  0  0  0  0
 19 20  1  0  0  0  0
 20 21  1  0  0  0  0
 20 23  1  0  0  0  0
 22 21  1  0  0  0  0
 23 24  1  0  0  0  0
 25  4  1  0  0  0  0
 25 26  1  0  0  0  0
 27 26  2  0  0  0  0
 27 29  1  0  0  0  0
 28 27  1  0  0  0  0
 30 28  1  0  0  0  0
 31 35  1  0  0  0  0
 31 28  2  0  0  0  0
 32 30  2  0  0  0  0
 33 32  1  0  0  0  0
 33 31  1  0  0  0  0
 34 32  1  0  0  0  0
 35 25  2  0  0  0  0
 36 38  1  0  0  0  0
 36 33  1  0  0  0  0
 37 36  1  0  0  0  0
M  END
>  <MODEL>
61

>  <REMARK>
 VINA RESULT:    -7.860      1.734      3.383
 INTER + INTRA:         -11.952
 INTER:                 -11.699
 INTRA:                  -0.253
 UNBOUND:                -0.876
  7 active torsions:
  status: ('A' for Active; 'I' for Inactive)
    1  A    between atoms: N3_3  and  C15_15 
    2  A    between atoms: N4_4  and  C16_16 
    3  A    between atoms: N5_5  and  C19_19 
    4  A    between atoms: N8_8  and  C31_31 
    5  A    between atoms: N8_8  and  C35_35 
    6  A    between atoms: C15_15  and  C17_17 
    7  A    between atoms: C28_28  and  C34_34 

>  <TORSDO>
F 7

$$$$
all.pdbqt
 OpenBabel04112516173D

 38 42  0  0  0  0  0  0  0  0999 V2000
   66.3540   50.2980   49.7520 F   0  0  0  0  0  0  0  0  0  0  0  0
   65.5700   48.3750   52.5330 N   0  0  0  0  0  0  0  0  0  0  0  0
   67.7410   48.7410   52.4990 N   0  0  0  0  0  0  0  0  0  0  0  0
   65.3150   49.0230   51.4670 C   0  0  0  0  0  0  0  0  0  0  0  0
   66.7210   48.2250   53.0490 C   0  0  0  0  0  0  0  0  0  0  0  0
   66.3870   49.5840   50.8640 C   0  0  0  0  0  0  0  0  0  0  0  0
   67.5850   49.4030   51.4380 C   0  0  0  0  0  3  0  0  0  0  0  0
   66.9410   47.5690   54.1190 N   0  0  0  0  0  0  0  0  0  0  0  0
   66.9690   48.1730   54.9810 H   0  0  0  0  0  0  0  0  0  0  0  0
   67.1300   46.3310   54.3480 C   0  0  0  0  0  0  0  0  0  0  0  0
   66.3880   45.3850   53.9390 N   0  0  0  0  0  0  0  0  0  0  0  0
   66.6630   44.1830   54.2220 C   0  0  0  0  0  3  0  0  0  0  0  0
   67.7190   43.7920   54.9520 C   0  0  0  0  0  0  0  0  0  0  0  0
   68.5200   44.7720   55.3980 C   0  0  0  0  0  3  0  0  0  0  0  0
   68.2170   46.0430   55.0900 C   0  0  0  0  0  3  0  0  0  0  0  0
   67.9820   42.3310   55.2460 C   0  0  0  0  0  2  0  0  0  0  0  0
   68.1260   42.1070   56.6800 N   0  0  0  0  0  0  0  0  0  0  0  0
   69.1450   41.1060   56.9550 C   0  0  0  0  0  2  0  0  0  0  0  0
   69.3160   40.9000   58.4680 C   0  0  0  0  0  2  0  0  0  0  0  0
   68.0650   40.4890   59.0910 N   0  0  0  0  0  0  0  0  0  0  0  0
   67.0400   41.4830   58.8080 C   0  0  0  0  0  2  0  0  0  0  0  0
   66.8730   41.6970   57.2940 C   0  0  0  0  0  2  0  0  0  0  0  0
   68.2530   40.2620   60.5210 C   0  0  0  0  0  2  0  0  0  0  0  0
   67.7400   41.4090   61.4070 C   0  0  0  0  0  1  0  0  0  0  0  0
   64.0190   49.0850   51.0530 C   0  0  0  0  0  0  0  0  0  0  0  0
   63.5190   50.2220   50.5060 C   0  0  0  0  0  3  0  0  0  0  0  0
   62.2530   50.3650   50.0800 C   0  0  0  0  0  0  0  0  0  0  0  0
   61.4310   49.3170   50.1960 C   0  0  0  0  0  0  0  0  0  0  0  0
   61.8310   51.5080   49.5590 F   0  0  0  0  0  0  0  0  0  0  0  0
   60.2120   49.2060   49.8760 N   0  0  0  0  0  0  0  0  0  0  0  0
   61.8810   48.1720   50.7230 C   0  0  0  0  0  0  0  0  0  0  0  0
   59.8650   48.0240   50.1810 C   0  0  0  0  0  0  0  0  0  0  0  0
   60.8640   47.4160   50.6790 N   0  0  0  0  0  0  0  0  0  0  0  0
   58.4380   47.6310   49.9240 C   0  0  0  0  0  1  0  0  0  0  0  0
   63.1460   48.0550   51.1490 C   0  0  0  0  0  3  0  0  0  0  0  0
   60.8580   46.0160   51.1620 C   0  0  0  0  0  3  0  0  0  0  0  0
   61.8000   45.7000   52.3350 C   0  0  0  0  0  1  0  0  0  0  0  0
   61.0850   45.0510   49.9880 C   0  0  0  0  0  1  0  0  0  0  0  0
  1  6  1  0  0  0  0
  2  5  2  0  0  0  0
  3  5  1  0  0  0  0
  4  2  1  0  0  0  0
  5  8  1  0  0  0  0
  6  7  1  0  0  0  0
  6  4  2  0  0  0  0
  7  3  2  0  0  0  0
  8 10  1  0  0  0  0
  8  9  1  0  0  0  0
 10 15  1  0  0  0  0
 11 12  1  0  0  0  0
 11 10  2  0  0  0  0
 12 13  2  0  0  0  0
 13 16  1  0  0  0  0
 13 14  1  0  0  0  0
 15 14  2  0  0  0  0
 16 17  1  0  0  0  0
 17 18  1  0  0  0  0
 17 22  1  0  0  0  0
 18 19  1  0  0  0  0
 19 20  1  0  0  0  0
 20 23  1  0  0  0  0
 21 20  1  0  0  0  0
 22 21  1  0  0  0  0
 23 24  1  0  0  0  0
 25 35  1  0  0  0  0
 25  4  1  0  0  0  0
 26 25  2  0  0  0  0
 27 28  2  0  0  0  0
 27 26  1  0  0  0  0
 28 31  1  0  0  0  0
 29 27  1  0  0  0  0
 30 32  2  0  0  0  0
 30 28  1  0  0  0  0
 31 35  2  0  0  0  0
 32 33  1  0  0  0  0
 33 31  1  0  0  0  0
 33 36  1  0  0  0  0
 34 32  1  0  0  0  0
 36 37  1  0  0  0  0
 38 36  1  0  0  0  0
M  END
>  <MODEL>
62

>  <REMARK>
 VINA RESULT:    -7.858      4.484      7.697
 INTER + INTRA:         -11.950
 INTER:                 -11.186
 INTRA:                  -0.763
 UNBOUND:                -0.876
  7 active torsions:
  status: ('A' for Active; 'I' for Inactive)
    1  A    between atoms: N3_3  and  C15_15 
    2  A    between atoms: N4_4  and  C16_16 
    3  A    between atoms: N5_5  and  C19_19 
    4  A    between atoms: N8_8  and  C31_31 
    5  A    between atoms: N8_8  and  C35_35 
    6  A    between atoms: C15_15  and  C17_17 
    7  A    between atoms: C28_28  and  C34_34 

>  <TORSDO>
F 7

$$$$
all.pdbqt
 OpenBabel04112516173D

 38 42  0  0  0  0  0  0  0  0999 V2000
   55.7110   43.0340   51.2150 F   0  0  0  0  0  0  0  0  0  0  0  0
   58.3170   45.3190   51.0420 N   0  0  0  0  0  0  0  0  0  0  0  0
   56.5090   46.2230   50.1710 N   0  0  0  0  0  0  0  0  0  0  0  0
   57.7760   44.2040   51.3320 C   0  0  0  0  0  0  0  0  0  0  0  0
   57.7340   46.3020   50.4870 C   0  0  0  0  0  0  0  0  0  0  0  0
   56.4690   44.0970   51.0060 C   0  0  0  0  0  0  0  0  0  0  0  0
   55.8880   45.1540   50.4200 C   0  0  0  0  0  3  0  0  0  0  0  0
   58.3080   47.4050   50.2110 N   0  0  0  0  0  0  0  0  0  0  0  0
   57.6520   48.2280   50.2100 H   0  0  0  0  0  0  0  0  0  0  0  0
   59.5160   47.7050   49.9400 C   0  0  0  0  0  0  0  0  0  0  0  0
   60.3800   48.1070   50.7780 N   0  0  0  0  0  0  0  0  0  0  0  0
   61.5580   48.3810   50.4070 C   0  0  0  0  0  3  0  0  0  0  0  0
   62.0050   48.2820   49.1450 C   0  0  0  0  0  0  0  0  0  0  0  0
   61.1100   47.8590   48.2380 C   0  0  0  0  0  3  0  0  0  0  0  0
   59.8650   47.5720   48.6450 C   0  0  0  0  0  3  0  0  0  0  0  0
   63.4320   48.6260   48.7800 C   0  0  0  0  0  2  0  0  0  0  0  0
   63.6860   50.0500   48.9600 N   0  0  0  0  0  0  0  0  0  0  0  0
   63.1560   50.8230   47.8480 C   0  0  0  0  0  2  0  0  0  0  0  0
   63.3970   52.3260   48.0610 C   0  0  0  0  0  2  0  0  0  0  0  0
   64.8160   52.6190   48.2110 N   0  0  0  0  0  0  0  0  0  0  0  0
   65.3520   51.8380   49.3160 C   0  0  0  0  0  2  0  0  0  0  0  0
   65.1050   50.3340   49.1090 C   0  0  0  0  0  2  0  0  0  0  0  0
   65.0310   54.0540   48.3750 C   0  0  0  0  0  2  0  0  0  0  0  0
   63.8260   54.9150   47.9610 C   0  0  0  0  0  1  0  0  0  0  0  0
   58.5500   43.2550   51.9280 C   0  0  0  0  0  0  0  0  0  0  0  0
   58.7380   43.2580   53.2720 C   0  0  0  0  0  3  0  0  0  0  0  0
   59.4910   42.3630   53.9340 C   0  0  0  0  0  0  0  0  0  0  0  0
   60.0900   41.4010   53.2240 C   0  0  0  0  0  0  0  0  0  0  0  0
   59.6350   42.4290   55.2500 F   0  0  0  0  0  0  0  0  0  0  0  0
   60.8400   40.4590   53.6100 N   0  0  0  0  0  0  0  0  0  0  0  0
   59.9260   41.3540   51.8960 C   0  0  0  0  0  0  0  0  0  0  0  0
   61.1650   39.8080   52.5710 C   0  0  0  0  0  0  0  0  0  0  0  0
   60.6140   40.3430   51.5580 N   0  0  0  0  0  0  0  0  0  0  0  0
   62.0870   38.6340   52.7470 C   0  0  0  0  0  1  0  0  0  0  0  0
   59.1780   42.2620   51.2560 C   0  0  0  0  0  3  0  0  0  0  0  0
   60.7540   39.8730   50.1610 C   0  0  0  0  0  3  0  0  0  0  0  0
   60.3740   38.4060   49.8990 C   0  0  0  0  0  1  0  0  0  0  0  0
   62.1640   40.1860   49.6370 C   0  0  0  0  0  1  0  0  0  0  0  0
  2  4  1  0  0  0  0
  3  7  2  0  0  0  0
  3  5  1  0  0  0  0
  4 25  1  0  0  0  0
  5  2  2  0  0  0  0
  6  1  1  0  0  0  0
  6  4  2  0  0  0  0
  7  6  1  0  0  0  0
  8  5  1  0  0  0  0
  9  8  1  0  0  0  0
 10  8  1  0  0  0  0
 10 11  1  0  0  0  0
 12 11  2  0  0  0  0
 13 12  1  0  0  0  0
 14 15  1  0  0  0  0
 14 13  2  0  0  0  0
 15 10  2  0  0  0  0
 16 17  1  0  0  0  0
 16 13  1  0  0  0  0
 17 22  1  0  0  0  0
 18 19  1  0  0  0  0
 18 17  1  0  0  0  0
 19 20  1  0  0  0  0
 20 23  1  0  0  0  0
 20 21  1  0  0  0  0
 22 21  1  0  0  0  0
 24 23  1  0  0  0  0
 25 26  1  0  0  0  0
 26 27  2  0  0  0  0
 27 29  1  0  0  0  0
 28 30  1  0  0  0  0
 28 27  1  0  0  0  0
 31 28  2  0  0  0  0
 32 34  1  0  0  0  0
 32 30  2  0  0  0  0
 33 31  1  0  0  0  0
 33 32  1  0  0  0  0
 35 31  1  0  0  0  0
 35 25  2  0  0  0  0
 36 33  1  0  0  0  0
 37 36  1  0  0  0  0
 38 36  1  0  0  0  0
M  END
>  <MODEL>
63

>  <REMARK>
 VINA RESULT:    -7.852      4.155     10.939
 INTER + INTRA:         -11.941
 INTER:                 -10.696
 INTRA:                  -1.245
 UNBOUND:                -0.876
  7 active torsions:
  status: ('A' for Active; 'I' for Inactive)
    1  A    between atoms: N3_3  and  C15_15 
    2  A    between atoms: N4_4  and  C16_16 
    3  A    between atoms: N5_5  and  C19_19 
    4  A    between atoms: N8_8  and  C31_31 
    5  A    between atoms: N8_8  and  C35_35 
    6  A    between atoms: C15_15  and  C17_17 
    7  A    between atoms: C28_28  and  C34_34 

>  <TORSDO>
F 7

$$$$
all.pdbqt
 OpenBabel04112516173D

 38 42  0  0  0  0  0  0  0  0999 V2000
   60.6330   48.4490   47.8500 F   0  0  0  0  0  0  0  0  0  0  0  0
   59.6610   47.0390   50.8690 N   0  0  0  0  0  0  0  0  0  0  0  0
   57.8970   47.2430   49.5680 N   0  0  0  0  0  0  0  0  0  0  0  0
   60.4900   47.5320   50.0380 C   0  0  0  0  0  0  0  0  0  0  0  0
   58.4150   46.8890   50.6690 C   0  0  0  0  0  0  0  0  0  0  0  0
   59.9600   47.9150   48.8550 C   0  0  0  0  0  0  0  0  0  0  0  0
   58.6410   47.7420   48.6820 C   0  0  0  0  0  3  0  0  0  0  0  0
   57.6130   46.3910   51.5250 N   0  0  0  0  0  0  0  0  0  0  0  0
   57.4360   47.0210   52.3490 H   0  0  0  0  0  0  0  0  0  0  0  0
   56.9860   45.2830   51.5760 C   0  0  0  0  0  0  0  0  0  0  0  0
   55.7780   45.1040   51.2290 N   0  0  0  0  0  0  0  0  0  0  0  0
   55.2450   43.9610   51.3180 C   0  0  0  0  0  3  0  0  0  0  0  0
   55.8670   42.8610   51.7690 C   0  0  0  0  0  0  0  0  0  0  0  0
   57.1450   43.0220   52.1440 C   0  0  0  0  0  3  0  0  0  0  0  0
   57.6990   44.2390   52.0440 C   0  0  0  0  0  3  0  0  0  0  0  0
   55.1600   41.5260   51.8440 C   0  0  0  0  0  2  0  0  0  0  0  0
   54.6690   41.1230   50.5320 N   0  0  0  0  0  0  0  0  0  0  0  0
   53.7120   40.0320   50.6410 C   0  0  0  0  0  2  0  0  0  0  0  0
   53.1740   39.6360   49.2570 C   0  0  0  0  0  2  0  0  0  0  0  0
   54.2530   39.2350   48.3630 N   0  0  0  0  0  0  0  0  0  0  0  0
   55.2170   40.3200   48.2610 C   0  0  0  0  0  2  0  0  0  0  0  0
   55.7520   40.7240   49.6460 C   0  0  0  0  0  2  0  0  0  0  0  0
   53.7210   38.8270   47.0660 C   0  0  0  0  0  2  0  0  0  0  0  0
   54.7740   38.7890   45.9460 C   0  0  0  0  0  1  0  0  0  0  0  0
   61.7960   47.6200   50.4150 C   0  0  0  0  0  0  0  0  0  0  0  0
   62.4070   46.5830   51.0420 C   0  0  0  0  0  3  0  0  0  0  0  0
   63.6870   46.5930   51.4510 C   0  0  0  0  0  0  0  0  0  0  0  0
   64.4090   47.6960   51.2220 C   0  0  0  0  0  0  0  0  0  0  0  0
   64.2190   45.5450   52.0620 F   0  0  0  0  0  0  0  0  0  0  0  0
   65.6150   47.9470   51.5100 N   0  0  0  0  0  0  0  0  0  0  0  0
   63.8500   48.7410   50.5990 C   0  0  0  0  0  0  0  0  0  0  0  0
   65.8480   49.1220   51.0930 C   0  0  0  0  0  0  0  0  0  0  0  0
   64.7960   49.5850   50.5490 N   0  0  0  0  0  0  0  0  0  0  0  0
   67.2200   49.6860   51.3330 C   0  0  0  0  0  1  0  0  0  0  0  0
   62.5690   48.7110   50.2080 C   0  0  0  0  0  3  0  0  0  0  0  0
   64.6670   50.9300   49.9440 C   0  0  0  0  0  3  0  0  0  0  0  0
   63.4010   51.7200   50.3130 C   0  0  0  0  0  1  0  0  0  0  0  0
   64.8460   50.8440   48.4200 C   0  0  0  0  0  1  0  0  0  0  0  0
  1  6  1  0  0  0  0
  3  5  1  0  0  0  0
  4 25  1  0  0  0  0
  4  2  1  0  0  0  0
  5  2  2  0  0  0  0
  5  8  1  0  0  0  0
  6  4  2  0  0  0  0
  7  6  1  0  0  0  0
  7  3  2  0  0  0  0
  8 10  1  0  0  0  0
  8  9  1  0  0  0  0
 10 15  1  0  0  0  0
 11 12  1  0  0  0  0
 11 10  2  0  0  0  0
 12 13  2  0  0  0  0
 13 16  1  0  0  0  0
 13 14  1  0  0  0  0
 15 14  2  0  0  0  0
 17 18  1  0  0  0  0
 17 16  1  0  0  0  0
 19 18  1  0  0  0  0
 20 19  1  0  0  0  0
 21 20  1  0  0  0  0
 21 22  1  0  0  0  0
 22 17  1  0  0  0  0
 23 20  1  0  0  0  0
 24 23  1  0  0  0  0
 25 26  1  0  0  0  0
 26 27  2  0  0  0  0
 27 29  1  0  0  0  0
 28 27  1  0  0  0  0
 28 30  1  0  0  0  0
 31 28  2  0  0  0  0
 32 34  1  0  0  0  0
 32 30  2  0  0  0  0
 33 31  1  0  0  0  0
 33 32  1  0  0  0  0
 35 25  2  0  0  0  0
 35 31  1  0  0  0  0
 36 37  1  0  0  0  0
 36 33  1  0  0  0  0
 38 36  1  0  0  0  0
M  END
>  <MODEL>
64

>  <REMARK>
 VINA RESULT:    -7.848      3.661      6.282
 INTER + INTRA:         -11.935
 INTER:                 -10.972
 INTRA:                  -0.963
 UNBOUND:                -0.876
  7 active torsions:
  status: ('A' for Active; 'I' for Inactive)
    1  A    between atoms: N3_3  and  C15_15 
    2  A    between atoms: N4_4  and  C16_16 
    3  A    between atoms: N5_5  and  C19_19 
    4  A    between atoms: N8_8  and  C31_31 
    5  A    between atoms: N8_8  and  C35_35 
    6  A    between atoms: C15_15  and  C17_17 
    7  A    between atoms: C28_28  and  C34_34 

>  <TORSDO>
F 7

$$$$
all.pdbqt
 OpenBabel04112516173D

 38 42  0  0  0  0  0  0  0  0999 V2000
   66.3870   51.0200   49.9360 F   0  0  0  0  0  0  0  0  0  0  0  0
   65.3640   48.3410   51.8910 N   0  0  0  0  0  0  0  0  0  0  0  0
   67.3500   49.0090   52.5670 N   0  0  0  0  0  0  0  0  0  0  0  0
   65.2490   49.2040   50.9620 C   0  0  0  0  0  0  0  0  0  0  0  0
   66.3580   48.2270   52.6740 C   0  0  0  0  0  0  0  0  0  0  0  0
   66.2940   50.0500   50.8300 C   0  0  0  0  0  0  0  0  0  0  0  0
   67.3250   49.8980   51.6730 C   0  0  0  0  0  3  0  0  0  0  0  0
   66.4400   47.3510   53.5960 N   0  0  0  0  0  0  0  0  0  0  0  0
   65.5230   47.1680   54.0810 H   0  0  0  0  0  0  0  0  0  0  0  0
   67.4090   46.6560   54.0410 C   0  0  0  0  0  0  0  0  0  0  0  0
   67.6490   46.4240   55.2660 N   0  0  0  0  0  0  0  0  0  0  0  0
   68.6420   45.7180   55.6060 C   0  0  0  0  0  3  0  0  0  0  0  0
   69.5140   45.1630   54.7500 C   0  0  0  0  0  0  0  0  0  0  0  0
   69.2840   45.3930   53.4480 C   0  0  0  0  0  3  0  0  0  0  0  0
   68.2280   46.1420   53.1010 C   0  0  0  0  0  3  0  0  0  0  0  0
   70.6780   44.3280   55.2360 C   0  0  0  0  0  2  0  0  0  0  0  0
   71.9470   44.9120   54.8160 N   0  0  0  0  0  0  0  0  0  0  0  0
   72.9460   43.8810   54.5780 C   0  0  0  0  0  2  0  0  0  0  0  0
   74.2700   44.5010   54.1030 C   0  0  0  0  0  2  0  0  0  0  0  0
   74.7890   45.4510   55.0780 N   0  0  0  0  0  0  0  0  0  0  0  0
   73.7870   46.4770   55.3270 C   0  0  0  0  0  2  0  0  0  0  0  0
   72.4590   45.8590   55.7950 C   0  0  0  0  0  2  0  0  0  0  0  0
   76.0640   46.0030   54.6290 C   0  0  0  0  0  2  0  0  0  0  0  0
   76.0010   46.6750   53.2480 C   0  0  0  0  0  1  0  0  0  0  0  0
   64.1110   49.1860   50.2130 C   0  0  0  0  0  0  0  0  0  0  0  0
   63.9470   50.0530   49.1810 C   0  0  0  0  0  3  0  0  0  0  0  0
   62.8550   50.1040   48.4010 C   0  0  0  0  0  0  0  0  0  0  0  0
   61.8640   49.2410   48.6520 C   0  0  0  0  0  0  0  0  0  0  0  0
   62.7600   50.9810   47.4120 F   0  0  0  0  0  0  0  0  0  0  0  0
   60.7500   49.0960   48.0700 N   0  0  0  0  0  0  0  0  0  0  0  0
   61.9850   48.3630   49.6560 C   0  0  0  0  0  0  0  0  0  0  0  0
   60.1510   48.1530   48.6690 C   0  0  0  0  0  0  0  0  0  0  0  0
   60.8930   47.7190   49.6060 N   0  0  0  0  0  0  0  0  0  0  0  0
   58.7750   47.7870   48.1870 C   0  0  0  0  0  1  0  0  0  0  0  0
   63.0800   48.3360   50.4260 C   0  0  0  0  0  3  0  0  0  0  0  0
   60.5420   46.6210   50.5350 C   0  0  0  0  0  3  0  0  0  0  0  0
   60.7700   45.1930   50.0120 C   0  0  0  0  0  1  0  0  0  0  0  0
   59.1070   46.8030   51.0530 C   0  0  0  0  0  1  0  0  0  0  0  0
  1  6  1  0  0  0  0
  2  5  2  0  0  0  0
  3  5  1  0  0  0  0
  4  2  1  0  0  0  0
  5  8  1  0  0  0  0
  6  4  2  0  0  0  0
  6  7  1  0  0  0  0
  7  3  2  0  0  0  0
  8 10  1  0  0  0  0
  8  9  1  0  0  0  0
 10 11  1  0  0  0  0
 11 12  2  0  0  0  0
 13 16  1  0  0  0  0
 13 12  1  0  0  0  0
 14 13  2  0  0  0  0
 15 14  1  0  0  0  0
 15 10  2  0  0  0  0
 17 16  1  0  0  0  0
 17 22  1  0  0  0  0
 18 17  1  0  0  0  0
 19 18  1  0  0  0  0
 19 20  1  0  0  0  0
 20 21  1  0  0  0  0
 21 22  1  0  0  0  0
 23 20  1  0  0  0  0
 24 23  1  0  0  0  0
 25 35  1  0  0  0  0
 25  4  1  0  0  0  0
 26 25  2  0  0  0  0
 27 28  2  0  0  0  0
 27 26  1  0  0  0  0
 28 31  1  0  0  0  0
 29 27  1  0  0  0  0
 30 28  1  0  0  0  0
 30 32  2  0  0  0  0
 31 35  2  0  0  0  0
 32 33  1  0  0  0  0
 33 31  1  0  0  0  0
 33 36  1  0  0  0  0
 34 32  1  0  0  0  0
 36 38  1  0  0  0  0
 37 36  1  0  0  0  0
M  END
>  <MODEL>
65

>  <REMARK>
 VINA RESULT:    -7.846      4.300      9.603
 INTER + INTRA:         -11.933
 INTER:                 -11.683
 INTRA:                  -0.250
 UNBOUND:                -0.876
  7 active torsions:
  status: ('A' for Active; 'I' for Inactive)
    1  A    between atoms: N3_3  and  C15_15 
    2  A    between atoms: N4_4  and  C16_16 
    3  A    between atoms: N5_5  and  C19_19 
    4  A    between atoms: N8_8  and  C31_31 
    5  A    between atoms: N8_8  and  C35_35 
    6  A    between atoms: C15_15  and  C17_17 
    7  A    between atoms: C28_28  and  C34_34 

>  <TORSDO>
F 7

$$$$
all.pdbqt
 OpenBabel04112516173D

 38 42  0  0  0  0  0  0  0  0999 V2000
   57.2140   44.9350   50.3180 F   0  0  0  0  0  0  0  0  0  0  0  0
   60.1390   44.5360   52.1420 N   0  0  0  0  0  0  0  0  0  0  0  0
   58.6610   43.0500   52.8160 N   0  0  0  0  0  0  0  0  0  0  0  0
   59.3890   45.0730   51.2640 C   0  0  0  0  0  0  0  0  0  0  0  0
   59.8170   43.5670   52.8970 C   0  0  0  0  0  0  0  0  0  0  0  0
   58.1530   44.5370   51.1590 C   0  0  0  0  0  0  0  0  0  0  0  0
   57.8480   43.5160   51.9730 C   0  0  0  0  0  3  0  0  0  0  0  0
   60.5950   43.0530   53.7650 N   0  0  0  0  0  0  0  0  0  0  0  0
   60.0900   42.4860   54.4950 H   0  0  0  0  0  0  0  0  0  0  0  0
   61.8580   43.0900   53.9200 C   0  0  0  0  0  0  0  0  0  0  0  0
   62.7160   42.6920   53.0730 N   0  0  0  0  0  0  0  0  0  0  0  0
   63.9530   42.7720   53.3220 C   0  0  0  0  0  3  0  0  0  0  0  0
   64.4740   43.2610   54.4590 C   0  0  0  0  0  0  0  0  0  0  0  0
   63.5880   43.6880   55.3730 C   0  0  0  0  0  3  0  0  0  0  0  0
   62.2790   43.5990   55.0950 C   0  0  0  0  0  3  0  0  0  0  0  0
   65.9680   43.3250   54.6830 C   0  0  0  0  0  2  0  0  0  0  0  0
   66.6150   44.1230   53.6480 N   0  0  0  0  0  0  0  0  0  0  0  0
   68.0200   43.7700   53.5140 C   0  0  0  0  0  2  0  0  0  0  0  0
   68.6870   44.5920   52.3990 C   0  0  0  0  0  2  0  0  0  0  0  0
   68.5780   46.0210   52.6570 N   0  0  0  0  0  0  0  0  0  0  0  0
   67.1740   46.3760   52.8040 C   0  0  0  0  0  2  0  0  0  0  0  0
   66.5020   45.5500   53.9140 C   0  0  0  0  0  2  0  0  0  0  0  0
   69.2490   46.7860   51.6090 C   0  0  0  0  0  2  0  0  0  0  0  0
   68.8900   48.2810   51.6030 C   0  0  0  0  0  1  0  0  0  0  0  0
   59.8970   46.1070   50.5380 C   0  0  0  0  0  0  0  0  0  0  0  0
   59.1670   46.6830   49.5490 C   0  0  0  0  0  3  0  0  0  0  0  0
   59.5960   47.7010   48.7840 C   0  0  0  0  0  0  0  0  0  0  0  0
   60.8220   48.1830   49.0150 C   0  0  0  0  0  0  0  0  0  0  0  0
   58.8310   48.2130   47.8320 F   0  0  0  0  0  0  0  0  0  0  0  0
   61.4450   49.1210   48.4370 N   0  0  0  0  0  0  0  0  0  0  0  0
   61.5760   47.6510   49.9850 C   0  0  0  0  0  0  0  0  0  0  0  0
   62.5760   49.2070   49.0050 C   0  0  0  0  0  0  0  0  0  0  0  0
   62.6440   48.3340   49.9270 N   0  0  0  0  0  0  0  0  0  0  0  0
   63.5360   50.2400   48.4880 C   0  0  0  0  0  1  0  0  0  0  0  0
   61.1290   46.6310   50.7300 C   0  0  0  0  0  3  0  0  0  0  0  0
   63.8080   48.1180   50.8150 C   0  0  0  0  0  3  0  0  0  0  0  0
   64.1170   49.2460   51.8130 C   0  0  0  0  0  1  0  0  0  0  0  0
   65.0470   47.7530   49.9830 C   0  0  0  0  0  1  0  0  0  0  0  0
  1  6  1  0  0  0  0
  2  5  2  0  0  0  0
  3  5  1  0  0  0  0
  4  2  1  0  0  0  0
  5  8  1  0  0  0  0
  6  4  2  0  0  0  0
  6  7  1  0  0  0  0
  7  3  2  0  0  0  0
  8 10  1  0  0  0  0
  8  9  1  0  0  0  0
 10 15  1  0  0  0  0
 11 12  1  0  0  0  0
 11 10  2  0  0  0  0
 12 13  2  0  0  0  0
 13 16  1  0  0  0  0
 13 14  1  0  0  0  0
 15 14  2  0  0  0  0
 17 22  1  0  0  0  0
 17 16  1  0  0  0  0
 18 17  1  0  0  0  0
 19 20  1  0  0  0  0
 19 18  1  0  0  0  0
 20 21  1  0  0  0  0
 21 22  1  0  0  0  0
 23 20  1  0  0  0  0
 24 23  1  0  0  0  0
 25 35  1  0  0  0  0
 25  4  1  0  0  0  0
 26 25  2  0  0  0  0
 27 28  2  0  0  0  0
 27 26  1  0  0  0  0
 28 31  1  0  0  0  0
 29 27  1  0  0  0  0
 30 32  2  0  0  0  0
 30 28  1  0  0  0  0
 31 35  2  0  0  0  0
 32 33  1  0  0  0  0
 33 31  1  0  0  0  0
 33 36  1  0  0  0  0
 34 32  1  0  0  0  0
 36 37  1  0  0  0  0
 38 36  1  0  0  0  0
M  END
>  <MODEL>
66

>  <REMARK>
 VINA RESULT:    -7.825      3.553      7.992
 INTER + INTRA:         -11.903
 INTER:                 -10.642
 INTRA:                  -1.261
 UNBOUND:                -0.876
  7 active torsions:
  status: ('A' for Active; 'I' for Inactive)
    1  A    between atoms: N3_3  and  C15_15 
    2  A    between atoms: N4_4  and  C16_16 
    3  A    between atoms: N5_5  and  C19_19 
    4  A    between atoms: N8_8  and  C31_31 
    5  A    between atoms: N8_8  and  C35_35 
    6  A    between atoms: C15_15  and  C17_17 
    7  A    between atoms: C28_28  and  C34_34 

>  <TORSDO>
F 7

$$$$
all.pdbqt
 OpenBabel04112516173D

 38 42  0  0  0  0  0  0  0  0999 V2000
   68.9200   43.9390   54.9560 F   0  0  0  0  0  0  0  0  0  0  0  0
   68.6160   46.5790   52.7240 N   0  0  0  0  0  0  0  0  0  0  0  0
   67.5150   47.0630   54.5680 N   0  0  0  0  0  0  0  0  0  0  0  0
   69.0160   45.4340   53.1120 C   0  0  0  0  0  0  0  0  0  0  0  0
   67.8980   47.3780   53.4010 C   0  0  0  0  0  0  0  0  0  0  0  0
   68.6220   45.0770   54.3540 C   0  0  0  0  0  0  0  0  0  0  0  0
   67.8630   45.9470   55.0370 C   0  0  0  0  0  3  0  0  0  0  0  0
   67.5160   48.5190   52.9810 N   0  0  0  0  0  0  0  0  0  0  0  0
   68.1330   49.3100   53.3000 H   0  0  0  0  0  0  0  0  0  0  0  0
   66.5380   48.8860   52.2520 C   0  0  0  0  0  0  0  0  0  0  0  0
   65.3280   48.5360   52.4110 N   0  0  0  0  0  0  0  0  0  0  0  0
   64.4270   48.9570   51.6300 C   0  0  0  0  0  3  0  0  0  0  0  0
   64.6390   49.7820   50.5930 C   0  0  0  0  0  0  0  0  0  0  0  0
   65.9100   50.1680   50.4010 C   0  0  0  0  0  3  0  0  0  0  0  0
   66.8560   49.7150   51.2370 C   0  0  0  0  0  3  0  0  0  0  0  0
   63.5070   50.2440   49.7030 C   0  0  0  0  0  2  0  0  0  0  0  0
   62.3850   49.3150   49.7650 N   0  0  0  0  0  0  0  0  0  0  0  0
   62.2250   48.6000   48.5080 C   0  0  0  0  0  2  0  0  0  0  0  0
   61.0620   47.5980   48.5920 C   0  0  0  0  0  2  0  0  0  0  0  0
   59.8110   48.2660   48.9220 N   0  0  0  0  0  0  0  0  0  0  0  0
   59.9700   48.9910   50.1730 C   0  0  0  0  0  2  0  0  0  0  0  0
   61.1380   49.9890   50.0940 C   0  0  0  0  0  2  0  0  0  0  0  0
   58.7110   47.3060   48.9610 C   0  0  0  0  0  2  0  0  0  0  0  0
   57.3490   47.9330   49.3020 C   0  0  0  0  0  1  0  0  0  0  0  0
   69.7840   44.7030   52.2560 C   0  0  0  0  0  0  0  0  0  0  0  0
   71.0010   45.1540   51.8590 C   0  0  0  0  0  3  0  0  0  0  0  0
   71.8140   44.4980   51.0140 C   0  0  0  0  0  0  0  0  0  0  0  0
   71.4000   43.3190   50.5360 C   0  0  0  0  0  0  0  0  0  0  0  0
   72.9880   45.0010   50.6640 F   0  0  0  0  0  0  0  0  0  0  0  0
   71.9750   42.5240   49.7370 N   0  0  0  0  0  0  0  0  0  0  0  0
   70.2110   42.8300   50.9070 C   0  0  0  0  0  0  0  0  0  0  0  0
   71.1890   41.5400   49.5810 C   0  0  0  0  0  0  0  0  0  0  0  0
   70.1460   41.7270   50.2840 N   0  0  0  0  0  0  0  0  0  0  0  0
   71.6230   40.4460   48.6470 C   0  0  0  0  0  1  0  0  0  0  0  0
   69.4130   43.5070   51.7440 C   0  0  0  0  0  3  0  0  0  0  0  0
   68.9940   40.8010   50.3660 C   0  0  0  0  0  3  0  0  0  0  0  0
   67.6030   41.4340   50.1970 C   0  0  0  0  0  1  0  0  0  0  0  0
   69.0750   39.9700   51.6560 C   0  0  0  0  0  1  0  0  0  0  0  0
  2  4  1  0  0  0  0
  2  5  2  0  0  0  0
  3  7  2  0  0  0  0
  4  6  2  0  0  0  0
  5  3  1  0  0  0  0
  6  1  1  0  0  0  0
  6  7  1  0  0  0  0
  8  9  1  0  0  0  0
  8  5  1  0  0  0  0
 10 11  1  0  0  0  0
 10  8  1  0  0  0  0
 12 11  2  0  0  0  0
 13 12  1  0  0  0  0
 14 13  2  0  0  0  0
 14 15  1  0  0  0  0
 15 10  2  0  0  0  0
 16 17  1  0  0  0  0
 16 13  1  0  0  0  0
 17 22  1  0  0  0  0
 18 19  1  0  0  0  0
 18 17  1  0  0  0  0
 19 20  1  0  0  0  0
 20 23  1  0  0  0  0
 20 21  1  0  0  0  0
 22 21  1  0  0  0  0
 23 24  1  0  0  0  0
 25  4  1  0  0  0  0
 26 25  1  0  0  0  0
 27 26  2  0  0  0  0
 28 31  2  0  0  0  0
 28 27  1  0  0  0  0
 29 27  1  0  0  0  0
 30 28  1  0  0  0  0
 31 35  1  0  0  0  0
 32 30  2  0  0  0  0
 32 33  1  0  0  0  0
 33 36  1  0  0  0  0
 33 31  1  0  0  0  0
 34 32  1  0  0  0  0
 35 25  2  0  0  0  0
 36 38  1  0  0  0  0
 37 36  1  0  0  0  0
M  END
>  <MODEL>
67

>  <REMARK>
 VINA RESULT:    -7.791      4.634      8.067
 INTER + INTRA:         -11.855
 INTER:                 -10.770
 INTRA:                  -1.086
 UNBOUND:                -0.876
  7 active torsions:
  status: ('A' for Active; 'I' for Inactive)
    1  A    between atoms: N3_3  and  C15_15 
    2  A    between atoms: N4_4  and  C16_16 
    3  A    between atoms: N5_5  and  C19_19 
    4  A    between atoms: N8_8  and  C31_31 
    5  A    between atoms: N8_8  and  C35_35 
    6  A    between atoms: C15_15  and  C17_17 
    7  A    between atoms: C28_28  and  C34_34 

>  <TORSDO>
F 7

$$$$
all.pdbqt
 OpenBabel04112516173D

 38 42  0  0  0  0  0  0  0  0999 V2000
   43.1090   57.6440   70.7610 F   0  0  0  0  0  0  0  0  0  0  0  0
   39.9690   58.8090   71.6710 N   0  0  0  0  0  0  0  0  0  0  0  0
   39.7770   57.5490   69.8760 N   0  0  0  0  0  0  0  0  0  0  0  0
   41.2310   58.6840   71.7810 C   0  0  0  0  0  0  0  0  0  0  0  0
   39.2490   58.2770   70.7700 C   0  0  0  0  0  0  0  0  0  0  0  0
   41.8160   57.9110   70.8390 C   0  0  0  0  0  0  0  0  0  0  0  0
   41.0240   57.3670   69.9040 C   0  0  0  0  0  3  0  0  0  0  0  0
   37.9860   58.4240   70.6900 N   0  0  0  0  0  0  0  0  0  0  0  0
   37.6720   58.8650   69.7880 H   0  0  0  0  0  0  0  0  0  0  0  0
   37.0330   58.1390   71.4870 C   0  0  0  0  0  0  0  0  0  0  0  0
   36.5900   56.9720   71.7180 N   0  0  0  0  0  0  0  0  0  0  0  0
   35.6360   56.7940   72.5300 C   0  0  0  0  0  3  0  0  0  0  0  0
   35.0140   57.7740   73.2040 C   0  0  0  0  0  0  0  0  0  0  0  0
   35.4630   59.0180   72.9770 C   0  0  0  0  0  3  0  0  0  0  0  0
   36.4750   59.1930   72.1150 C   0  0  0  0  0  3  0  0  0  0  0  0
   33.8800   57.4800   74.1610 C   0  0  0  0  0  2  0  0  0  0  0  0
   33.1310   56.3050   73.7340 N   0  0  0  0  0  0  0  0  0  0  0  0
   31.8130   56.6730   73.2380 C   0  0  0  0  0  2  0  0  0  0  0  0
   31.0420   55.4330   72.7580 C   0  0  0  0  0  2  0  0  0  0  0  0
   30.8920   54.4550   73.8280 N   0  0  0  0  0  0  0  0  0  0  0  0
   32.2080   54.0930   74.3340 C   0  0  0  0  0  2  0  0  0  0  0  0
   32.9850   55.3340   74.8080 C   0  0  0  0  0  2  0  0  0  0  0  0
   30.1270   53.3010   73.3660 C   0  0  0  0  0  2  0  0  0  0  0  0
   30.8460   51.9570   73.5640 C   0  0  0  0  0  1  0  0  0  0  0  0
   41.8490   59.3250   72.8110 C   0  0  0  0  0  0  0  0  0  0  0  0
   42.4980   60.5000   72.6070 C   0  0  0  0  0  3  0  0  0  0  0  0
   43.1360   61.1900   73.5670 C   0  0  0  0  0  0  0  0  0  0  0  0
   43.1270   60.6910   74.8080 C   0  0  0  0  0  0  0  0  0  0  0  0
   43.7550   62.3290   73.2950 F   0  0  0  0  0  0  0  0  0  0  0  0
   43.6510   61.1460   75.8660 N   0  0  0  0  0  0  0  0  0  0  0  0
   42.4930   59.5390   75.0580 C   0  0  0  0  0  0  0  0  0  0  0  0
   43.3740   60.3200   76.7890 C   0  0  0  0  0  0  0  0  0  0  0  0
   42.6810   59.3720   76.3010 N   0  0  0  0  0  0  0  0  0  0  0  0
   43.9040   60.6120   78.1640 C   0  0  0  0  0  1  0  0  0  0  0  0
   41.8700   58.8640   74.0830 C   0  0  0  0  0  3  0  0  0  0  0  0
   42.1650   58.2120   77.0630 C   0  0  0  0  0  3  0  0  0  0  0  0
   42.6890   56.8320   76.6330 C   0  0  0  0  0  1  0  0  0  0  0  0
   40.6300   58.2410   77.0950 C   0  0  0  0  0  1  0  0  0  0  0  0
  1  6  1  0  0  0  0
  2  4  1  0  0  0  0
  3  7  2  0  0  0  0
  3  5  1  0  0  0  0
  4 25  1  0  0  0  0
  5  2  2  0  0  0  0
  6  4  2  0  0  0  0
  7  6  1  0  0  0  0
  8  5  1  0  0  0  0
  8 10  1  0  0  0  0
  9  8  1  0  0  0  0
 10 11  2  0  0  0  0
 10 15  1  0  0  0  0
 11 12  1  0  0  0  0
 12 13  2  0  0  0  0
 13 16  1  0  0  0  0
 14 13  1  0  0  0  0
 15 14  2  0  0  0  0
 17 16  1  0  0  0  0
 17 22  1  0  0  0  0
 18 17  1  0  0  0  0
 19 18  1  0  0  0  0
 19 20  1  0  0  0  0
 20 21  1  0  0  0  0
 21 22  1  0  0  0  0
 23 24  1  0  0  0  0
 23 20  1  0  0  0  0
 25 35  1  0  0  0  0
 26 25  2  0  0  0  0
 26 27  1  0  0  0  0
 27 28  2  0  0  0  0
 28 31  1  0  0  0  0
 28 30  1  0  0  0  0
 29 27  1  0  0  0  0
 30 32  2  0  0  0  0
 31 33  1  0  0  0  0
 32 34  1  0  0  0  0
 33 32  1  0  0  0  0
 33 36  1  0  0  0  0
 35 31  2  0  0  0  0
 36 38  1  0  0  0  0
 37 36  1  0  0  0  0
M  END
>  <MODEL>
68

>  <REMARK>
 VINA RESULT:    -7.766     30.941     34.857
 INTER + INTRA:         -11.821
 INTER:                 -10.583
 INTRA:                  -1.238
 UNBOUND:                -0.876
  7 active torsions:
  status: ('A' for Active; 'I' for Inactive)
    1  A    between atoms: N3_3  and  C15_15 
    2  A    between atoms: N4_4  and  C16_16 
    3  A    between atoms: N5_5  and  C19_19 
    4  A    between atoms: N8_8  and  C31_31 
    5  A    between atoms: N8_8  and  C35_35 
    6  A    between atoms: C15_15  and  C17_17 
    7  A    between atoms: C28_28  and  C34_34 

>  <TORSDO>
F 7

$$$$
all.pdbqt
 OpenBabel04112516173D

 38 42  0  0  0  0  0  0  0  0999 V2000
   55.9980   43.0100   51.6330 F   0  0  0  0  0  0  0  0  0  0  0  0
   58.4190   45.3510   50.7960 N   0  0  0  0  0  0  0  0  0  0  0  0
   56.4280   46.1960   50.3860 N   0  0  0  0  0  0  0  0  0  0  0  0
   57.9960   44.2290   51.2240 C   0  0  0  0  0  0  0  0  0  0  0  0
   57.6910   46.3090   50.3900 C   0  0  0  0  0  0  0  0  0  0  0  0
   56.6520   44.0860   51.2310 C   0  0  0  0  0  0  0  0  0  0  0  0
   55.9170   45.1180   50.7940 C   0  0  0  0  0  3  0  0  0  0  0  0
   58.1490   47.4210   49.9680 N   0  0  0  0  0  0  0  0  0  0  0  0
   57.4010   48.1380   49.7840 H   0  0  0  0  0  0  0  0  0  0  0  0
   59.3310   47.8310   49.7290 C   0  0  0  0  0  0  0  0  0  0  0  0
   60.0650   48.4750   50.5400 N   0  0  0  0  0  0  0  0  0  0  0  0
   61.2290   48.8390   50.2050 C   0  0  0  0  0  3  0  0  0  0  0  0
   61.7910   48.5990   49.0100 C   0  0  0  0  0  0  0  0  0  0  0  0
   61.0360   47.9200   48.1330 C   0  0  0  0  0  3  0  0  0  0  0  0
   59.8030   47.5390   48.5010 C   0  0  0  0  0  3  0  0  0  0  0  0
   63.1920   49.0660   48.6850 C   0  0  0  0  0  2  0  0  0  0  0  0
   63.2700   50.5220   48.6970 N   0  0  0  0  0  0  0  0  0  0  0  0
   63.5040   51.0470   47.3600 C   0  0  0  0  0  2  0  0  0  0  0  0
   63.5510   52.5830   47.3760 C   0  0  0  0  0  2  0  0  0  0  0  0
   64.5940   53.0720   48.2680 N   0  0  0  0  0  0  0  0  0  0  0  0
   64.3690   52.5400   49.6040 C   0  0  0  0  0  2  0  0  0  0  0  0
   64.3140   51.0030   49.5900 C   0  0  0  0  0  2  0  0  0  0  0  0
   64.6500   54.5310   48.2430 C   0  0  0  0  0  2  0  0  0  0  0  0
   63.3230   55.1990   47.8450 C   0  0  0  0  0  1  0  0  0  0  0  0
   58.9190   43.3100   51.6230 C   0  0  0  0  0  0  0  0  0  0  0  0
   59.2190   42.2450   50.8380 C   0  0  0  0  0  3  0  0  0  0  0  0
   60.1100   41.2920   51.1610 C   0  0  0  0  0  0  0  0  0  0  0  0
   60.7480   41.4020   52.3320 C   0  0  0  0  0  0  0  0  0  0  0  0
   60.3510   40.2750   50.3470 F   0  0  0  0  0  0  0  0  0  0  0  0
   61.6150   40.6440   52.8550 N   0  0  0  0  0  0  0  0  0  0  0  0
   60.4890   42.4410   53.1360 C   0  0  0  0  0  0  0  0  0  0  0  0
   61.9210   41.1630   53.9710 C   0  0  0  0  0  0  0  0  0  0  0  0
   61.2510   42.2330   54.1280 N   0  0  0  0  0  0  0  0  0  0  0  0
   62.9270   40.4400   54.8210 C   0  0  0  0  0  1  0  0  0  0  0  0
   59.5900   43.3740   52.7960 C   0  0  0  0  0  3  0  0  0  0  0  0
   61.3260   43.1220   55.3090 C   0  0  0  0  0  3  0  0  0  0  0  0
   62.6650   43.8460   55.5280 C   0  0  0  0  0  1  0  0  0  0  0  0
   60.8900   42.3640   56.5720 C   0  0  0  0  0  1  0  0  0  0  0  0
  2  4  1  0  0  0  0
  3  5  1  0  0  0  0
  3  7  2  0  0  0  0
  4  6  2  0  0  0  0
  4 25  1  0  0  0  0
  5  2  2  0  0  0  0
  6  1  1  0  0  0  0
  7  6  1  0  0  0  0
  8  5  1  0  0  0  0
  9  8  1  0  0  0  0
 10  8  1  0  0  0  0
 10 11  1  0  0  0  0
 12 11  2  0  0  0  0
 13 12  1  0  0  0  0
 14 15  1  0  0  0  0
 14 13  2  0  0  0  0
 15 10  2  0  0  0  0
 16 17  1  0  0  0  0
 16 13  1  0  0  0  0
 17 22  1  0  0  0  0
 18 19  1  0  0  0  0
 18 17  1  0  0  0  0
 19 20  1  0  0  0  0
 20 21  1  0  0  0  0
 22 21  1  0  0  0  0
 23 20  1  0  0  0  0
 24 23  1  0  0  0  0
 25 35  1  0  0  0  0
 26 27  1  0  0  0  0
 26 25  2  0  0  0  0
 27 28  2  0  0  0  0
 28 30  1  0  0  0  0
 28 31  1  0  0  0  0
 29 27  1  0  0  0  0
 30 32  2  0  0  0  0
 31 33  1  0  0  0  0
 32 33  1  0  0  0  0
 32 34  1  0  0  0  0
 33 36  1  0  0  0  0
 35 31  2  0  0  0  0
 36 37  1  0  0  0  0
 36 38  1  0  0  0  0
M  END
>  <MODEL>
69

>  <REMARK>
 VINA RESULT:    -7.766      4.390     10.665
 INTER + INTRA:         -11.820
 INTER:                 -10.598
 INTRA:                  -1.222
 UNBOUND:                -0.876
  7 active torsions:
  status: ('A' for Active; 'I' for Inactive)
    1  A    between atoms: N3_3  and  C15_15 
    2  A    between atoms: N4_4  and  C16_16 
    3  A    between atoms: N5_5  and  C19_19 
    4  A    between atoms: N8_8  and  C31_31 
    5  A    between atoms: N8_8  and  C35_35 
    6  A    between atoms: C15_15  and  C17_17 
    7  A    between atoms: C28_28  and  C34_34 

>  <TORSDO>
F 7

$$$$
all.pdbqt
 OpenBabel04112516173D

 38 42  0  0  0  0  0  0  0  0999 V2000
   67.0680   50.5640   52.2090 F   0  0  0  0  0  0  0  0  0  0  0  0
   66.0480   47.3340   51.4540 N   0  0  0  0  0  0  0  0  0  0  0  0
   67.4910   47.2640   53.1160 N   0  0  0  0  0  0  0  0  0  0  0  0
   66.0710   48.6000   51.3180 C   0  0  0  0  0  0  0  0  0  0  0  0
   66.7170   46.6700   52.3060 C   0  0  0  0  0  0  0  0  0  0  0  0
   66.8890   49.2550   52.1710 C   0  0  0  0  0  0  0  0  0  0  0  0
   67.5800   48.5200   53.0560 C   0  0  0  0  0  3  0  0  0  0  0  0
   66.6680   45.4010   52.4150 N   0  0  0  0  0  0  0  0  0  0  0  0
   67.2720   44.8980   51.7150 H   0  0  0  0  0  0  0  0  0  0  0  0
   66.0350   44.6280   53.2050 C   0  0  0  0  0  0  0  0  0  0  0  0
   64.7780   44.4490   53.2110 N   0  0  0  0  0  0  0  0  0  0  0  0
   64.2440   43.6560   54.0390 C   0  0  0  0  0  3  0  0  0  0  0  0
   64.9150   42.9490   54.9610 C   0  0  0  0  0  0  0  0  0  0  0  0
   66.2460   43.1190   54.9770 C   0  0  0  0  0  3  0  0  0  0  0  0
   66.8000   43.9620   54.0940 C   0  0  0  0  0  3  0  0  0  0  0  0
   64.2030   42.0170   55.9170 C   0  0  0  0  0  2  0  0  0  0  0  0
   65.0160   41.7650   57.1000 N   0  0  0  0  0  0  0  0  0  0  0  0
   65.3070   40.3470   57.2460 C   0  0  0  0  0  2  0  0  0  0  0  0
   66.1930   40.0930   58.4760 C   0  0  0  0  0  2  0  0  0  0  0  0
   65.5580   40.5760   59.6950 N   0  0  0  0  0  0  0  0  0  0  0  0
   65.2560   41.9920   59.5480 C   0  0  0  0  0  2  0  0  0  0  0  0
   64.3750   42.2500   58.3130 C   0  0  0  0  0  2  0  0  0  0  0  0
   66.3950   40.2940   60.8570 C   0  0  0  0  0  2  0  0  0  0  0  0
   67.3550   39.1090   60.6610 C   0  0  0  0  0  1  0  0  0  0  0  0
   65.2880   49.1520   50.3500 C   0  0  0  0  0  0  0  0  0  0  0  0
   64.1700   48.5160   49.9170 C   0  0  0  0  0  3  0  0  0  0  0  0
   63.3500   48.9890   48.9630 C   0  0  0  0  0  0  0  0  0  0  0  0
   63.6510   50.1680   48.4070 C   0  0  0  0  0  0  0  0  0  0  0  0
   62.2770   48.3110   48.5850 F   0  0  0  0  0  0  0  0  0  0  0  0
   63.0470   50.8130   47.5020 N   0  0  0  0  0  0  0  0  0  0  0  0
   64.7400   50.8350   48.8090 C   0  0  0  0  0  0  0  0  0  0  0  0
   63.7160   51.8730   47.3080 C   0  0  0  0  0  0  0  0  0  0  0  0
   64.7170   51.8810   48.0920 N   0  0  0  0  0  0  0  0  0  0  0  0
   63.2240   52.8210   46.2500 C   0  0  0  0  0  1  0  0  0  0  0  0
   65.5480   50.3390   49.7560 C   0  0  0  0  0  3  0  0  0  0  0  0
   65.7370   52.9520   48.1640 C   0  0  0  0  0  3  0  0  0  0  0  0
   66.9730   52.6520   49.0280 C   0  0  0  0  0  1  0  0  0  0  0  0
   65.0810   54.2810   48.5710 C   0  0  0  0  0  1  0  0  0  0  0  0
  2  5  2  0  0  0  0
  4  2  1  0  0  0  0
  4  6  2  0  0  0  0
  5  8  1  0  0  0  0
  5  3  1  0  0  0  0
  6  1  1  0  0  0  0
  6  7  1  0  0  0  0
  7  3  2  0  0  0  0
  8 10  1  0  0  0  0
  9  8  1  0  0  0  0
 10 11  2  0  0  0  0
 10 15  1  0  0  0  0
 11 12  1  0  0  0  0
 12 13  2  0  0  0  0
 13 14  1  0  0  0  0
 13 16  1  0  0  0  0
 15 14  2  0  0  0  0
 16 17  1  0  0  0  0
 17 18  1  0  0  0  0
 17 22  1  0  0  0  0
 18 19  1  0  0  0  0
 19 20  1  0  0  0  0
 20 23  1  0  0  0  0
 21 20  1  0  0  0  0
 22 21  1  0  0  0  0
 24 23  1  0  0  0  0
 25  4  1  0  0  0  0
 26 25  1  0  0  0  0
 27 26  2  0  0  0  0
 28 31  2  0  0  0  0
 28 27  1  0  0  0  0
 29 27  1  0  0  0  0
 30 28  1  0  0  0  0
 31 35  1  0  0  0  0
 32 30  2  0  0  0  0
 32 33  1  0  0  0  0
 33 36  1  0  0  0  0
 33 31  1  0  0  0  0
 34 32  1  0  0  0  0
 35 25  2  0  0  0  0
 36 38  1  0  0  0  0
 36 37  1  0  0  0  0
M  END
>  <MODEL>
70

>  <REMARK>
 VINA RESULT:    -7.748      4.481      6.131
 INTER + INTRA:         -11.795
 INTER:                 -11.562
 INTRA:                  -0.233
 UNBOUND:                -0.876
  7 active torsions:
  status: ('A' for Active; 'I' for Inactive)
    1  A    between atoms: N3_3  and  C15_15 
    2  A    between atoms: N4_4  and  C16_16 
    3  A    between atoms: N5_5  and  C19_19 
    4  A    between atoms: N8_8  and  C31_31 
    5  A    between atoms: N8_8  and  C35_35 
    6  A    between atoms: C15_15  and  C17_17 
    7  A    between atoms: C28_28  and  C34_34 

>  <TORSDO>
F 7

$$$$
all.pdbqt
 OpenBabel04112516173D

 38 42  0  0  0  0  0  0  0  0999 V2000
   54.4180   43.7510   51.0440 F   0  0  0  0  0  0  0  0  0  0  0  0
   57.1020   45.9240   50.6970 N   0  0  0  0  0  0  0  0  0  0  0  0
   55.5100   46.5150   49.2960 N   0  0  0  0  0  0  0  0  0  0  0  0
   56.4750   44.9320   51.1910 C   0  0  0  0  0  0  0  0  0  0  0  0
   56.6630   46.6980   49.7900 C   0  0  0  0  0  0  0  0  0  0  0  0
   55.2420   44.7180   50.6800 C   0  0  0  0  0  0  0  0  0  0  0  0
   54.8140   45.5550   49.7240 C   0  0  0  0  0  3  0  0  0  0  0  0
   57.3190   47.6830   49.3180 N   0  0  0  0  0  0  0  0  0  0  0  0
   56.7130   48.5070   49.0680 H   0  0  0  0  0  0  0  0  0  0  0  0
   58.5590   47.8660   49.0940 C   0  0  0  0  0  0  0  0  0  0  0  0
   59.2010   47.4160   48.0960 N   0  0  0  0  0  0  0  0  0  0  0  0
   60.4360   47.6530   47.9640 C   0  0  0  0  0  3  0  0  0  0  0  0
   61.1730   48.3730   48.8250 C   0  0  0  0  0  0  0  0  0  0  0  0
   60.5180   48.8600   49.8910 C   0  0  0  0  0  3  0  0  0  0  0  0
   59.2080   48.6010   50.0190 C   0  0  0  0  0  3  0  0  0  0  0  0
   62.6480   48.6150   48.5970 C   0  0  0  0  0  2  0  0  0  0  0  0
   63.3830   48.5740   49.8550 N   0  0  0  0  0  0  0  0  0  0  0  0
   64.6090   49.3520   49.7730 C   0  0  0  0  0  2  0  0  0  0  0  0
   65.3610   49.3330   51.1140 C   0  0  0  0  0  2  0  0  0  0  0  0
   65.6870   47.9710   51.5180 N   0  0  0  0  0  0  0  0  0  0  0  0
   64.4640   47.1870   51.5900 C   0  0  0  0  0  2  0  0  0  0  0  0
   63.7050   47.2120   50.2520 C   0  0  0  0  0  2  0  0  0  0  0  0
   66.4330   47.9730   52.7730 C   0  0  0  0  0  2  0  0  0  0  0  0
   67.9010   48.4080   52.6250 C   0  0  0  0  0  1  0  0  0  0  0  0
   57.0950   44.2040   52.1610 C   0  0  0  0  0  0  0  0  0  0  0  0
   58.4030   43.8610   52.0410 C   0  0  0  0  0  3  0  0  0  0  0  0
   59.0840   43.1420   52.9480 C   0  0  0  0  0  0  0  0  0  0  0  0
   58.4330   42.7400   54.0460 C   0  0  0  0  0  0  0  0  0  0  0  0
   60.3600   42.8380   52.7630 F   0  0  0  0  0  0  0  0  0  0  0  0
   58.8480   42.0600   55.0280 N   0  0  0  0  0  0  0  0  0  0  0  0
   57.1450   43.0620   54.2110 C   0  0  0  0  0  0  0  0  0  0  0  0
   57.8650   41.9330   55.8190 C   0  0  0  0  0  0  0  0  0  0  0  0
   56.8580   42.5350   55.3290 N   0  0  0  0  0  0  0  0  0  0  0  0
   58.0810   41.1340   57.0740 C   0  0  0  0  0  1  0  0  0  0  0  0
   56.4830   43.7740   53.2890 C   0  0  0  0  0  3  0  0  0  0  0  0
   55.5190   42.6120   55.9560 C   0  0  0  0  0  3  0  0  0  0  0  0
   55.4410   43.3610   57.2970 C   0  0  0  0  0  1  0  0  0  0  0  0
   54.9050   41.2080   56.0650 C   0  0  0  0  0  1  0  0  0  0  0  0
  2  4  1  0  0  0  0
  3  7  2  0  0  0  0
  3  5  1  0  0  0  0
  4 25  1  0  0  0  0
  5  2  2  0  0  0  0
  6  1  1  0  0  0  0
  6  4  2  0  0  0  0
  7  6  1  0  0  0  0
  8  5  1  0  0  0  0
  9  8  1  0  0  0  0
 10  8  1  0  0  0  0
 10 15  1  0  0  0  0
 11 10  2  0  0  0  0
 12 11  1  0  0  0  0
 12 13  2  0  0  0  0
 13 14  1  0  0  0  0
 14 15  2  0  0  0  0
 16 13  1  0  0  0  0
 16 17  1  0  0  0  0
 17 22  1  0  0  0  0
 18 17  1  0  0  0  0
 18 19  1  0  0  0  0
 19 20  1  0  0  0  0
 20 21  1  0  0  0  0
 20 23  1  0  0  0  0
 22 21  1  0  0  0  0
 24 23  1  0  0  0  0
 25 35  1  0  0  0  0
 26 25  2  0  0  0  0
 26 27  1  0  0  0  0
 27 28  2  0  0  0  0
 28 31  1  0  0  0  0
 28 30  1  0  0  0  0
 29 27  1  0  0  0  0
 30 32  2  0  0  0  0
 31 33  1  0  0  0  0
 32 34  1  0  0  0  0
 33 32  1  0  0  0  0
 33 36  1  0  0  0  0
 35 31  2  0  0  0  0
 36 38  1  0  0  0  0
 36 37  1  0  0  0  0
M  END
>  <MODEL>
71

>  <REMARK>
 VINA RESULT:    -7.737      3.773     10.860
 INTER + INTRA:         -11.779
 INTER:                 -10.643
 INTRA:                  -1.136
 UNBOUND:                -0.876
  7 active torsions:
  status: ('A' for Active; 'I' for Inactive)
    1  A    between atoms: N3_3  and  C15_15 
    2  A    between atoms: N4_4  and  C16_16 
    3  A    between atoms: N5_5  and  C19_19 
    4  A    between atoms: N8_8  and  C31_31 
    5  A    between atoms: N8_8  and  C35_35 
    6  A    between atoms: C15_15  and  C17_17 
    7  A    between atoms: C28_28  and  C34_34 

>  <TORSDO>
F 7

$$$$
all.pdbqt
 OpenBabel04112516173D

 38 42  0  0  0  0  0  0  0  0999 V2000
   70.1340   42.0230   53.9920 F   0  0  0  0  0  0  0  0  0  0  0  0
   68.2710   44.9330   54.3110 N   0  0  0  0  0  0  0  0  0  0  0  0
   69.9870   45.3180   52.9860 N   0  0  0  0  0  0  0  0  0  0  0  0
   68.5490   43.7110   54.5290 C   0  0  0  0  0  0  0  0  0  0  0  0
   68.9410   45.7250   53.5770 C   0  0  0  0  0  0  0  0  0  0  0  0
   69.6600   43.2540   53.9090 C   0  0  0  0  0  0  0  0  0  0  0  0
   70.3420   44.1180   53.1430 C   0  0  0  0  0  3  0  0  0  0  0  0
   68.6320   46.9450   53.3790 N   0  0  0  0  0  0  0  0  0  0  0  0
   69.3800   47.6200   53.6820 H   0  0  0  0  0  0  0  0  0  0  0  0
   67.5990   47.5040   52.8870 C   0  0  0  0  0  0  0  0  0  0  0  0
   66.9380   48.4410   53.4310 N   0  0  0  0  0  0  0  0  0  0  0  0
   65.9220   48.9300   52.8590 C   0  0  0  0  0  3  0  0  0  0  0  0
   65.4500   48.5310   51.6670 C   0  0  0  0  0  0  0  0  0  0  0  0
   66.1290   47.5400   51.0700 C   0  0  0  0  0  3  0  0  0  0  0  0
   67.2050   47.0300   51.6870 C   0  0  0  0  0  3  0  0  0  0  0  0
   64.2270   49.1680   51.0460 C   0  0  0  0  0  2  0  0  0  0  0  0
   64.5610   50.4510   50.4380 N   0  0  0  0  0  0  0  0  0  0  0  0
   63.3880   51.3050   50.3340 C   0  0  0  0  0  2  0  0  0  0  0  0
   63.7550   52.6670   49.7230 C   0  0  0  0  0  2  0  0  0  0  0  0
   64.3500   52.5120   48.4020 N   0  0  0  0  0  0  0  0  0  0  0  0
   65.5170   51.6490   48.5000 C   0  0  0  0  0  2  0  0  0  0  0  0
   65.1540   50.2880   49.1190 C   0  0  0  0  0  2  0  0  0  0  0  0
   64.6570   53.8160   47.8210 C   0  0  0  0  0  2  0  0  0  0  0  0
   63.4250   54.7100   47.6080 C   0  0  0  0  0  1  0  0  0  0  0  0
   67.7200   43.0030   55.3450 C   0  0  0  0  0  0  0  0  0  0  0  0
   66.4050   42.8590   55.0410 C   0  0  0  0  0  3  0  0  0  0  0  0
   65.5220   42.1840   55.7960 C   0  0  0  0  0  0  0  0  0  0  0  0
   65.9670   41.6110   56.9190 C   0  0  0  0  0  0  0  0  0  0  0  0
   64.2490   42.0880   55.4400 F   0  0  0  0  0  0  0  0  0  0  0  0
   65.3400   40.9350   57.7850 N   0  0  0  0  0  0  0  0  0  0  0  0
   67.2580   41.7200   57.2560 C   0  0  0  0  0  0  0  0  0  0  0  0
   66.1890   40.6070   58.6700 C   0  0  0  0  0  0  0  0  0  0  0  0
   67.3270   41.0730   58.3450 N   0  0  0  0  0  0  0  0  0  0  0  0
   65.6970   39.8080   59.8430 C   0  0  0  0  0  1  0  0  0  0  0  0
   68.1190   42.4050   56.4920 C   0  0  0  0  0  3  0  0  0  0  0  0
   68.5730   40.9050   59.1260 C   0  0  0  0  0  3  0  0  0  0  0  0
   69.1400   39.4780   59.1990 C   0  0  0  0  0  1  0  0  0  0  0  0
   68.4050   41.5110   60.5270 C   0  0  0  0  0  1  0  0  0  0  0  0
  2  4  1  0  0  0  0
  3  7  2  0  0  0  0
  3  5  1  0  0  0  0
  4 25  1  0  0  0  0
  5  2  2  0  0  0  0
  6  1  1  0  0  0  0
  6  4  2  0  0  0  0
  7  6  1  0  0  0  0
  8  5  1  0  0  0  0
  8  9  1  0  0  0  0
 10  8  1  0  0  0  0
 10 11  1  0  0  0  0
 12 11  2  0  0  0  0
 13 12  1  0  0  0  0
 14 13  2  0  0  0  0
 14 15  1  0  0  0  0
 15 10  2  0  0  0  0
 16 13  1  0  0  0  0
 17 16  1  0  0  0  0
 18 17  1  0  0  0  0
 19 18  1  0  0  0  0
 20 21  1  0  0  0  0
 20 19  1  0  0  0  0
 21 22  1  0  0  0  0
 22 17  1  0  0  0  0
 23 20  1  0  0  0  0
 24 23  1  0  0  0  0
 25 35  1  0  0  0  0
 26 25  2  0  0  0  0
 26 27  1  0  0  0  0
 27 28  2  0  0  0  0
 28 31  1  0  0  0  0
 28 30  1  0  0  0  0
 29 27  1  0  0  0  0
 30 32  2  0  0  0  0
 31 33  1  0  0  0  0
 32 34  1  0  0  0  0
 33 32  1  0  0  0  0
 33 36  1  0  0  0  0
 35 31  2  0  0  0  0
 36 37  1  0  0  0  0
 36 38  1  0  0  0  0
M  END
>  <MODEL>
72

>  <REMARK>
 VINA RESULT:    -7.732      5.435     10.870
 INTER + INTRA:         -11.773
 INTER:                 -10.749
 INTRA:                  -1.023
 UNBOUND:                -0.876
  7 active torsions:
  status: ('A' for Active; 'I' for Inactive)
    1  A    between atoms: N3_3  and  C15_15 
    2  A    between atoms: N4_4  and  C16_16 
    3  A    between atoms: N5_5  and  C19_19 
    4  A    between atoms: N8_8  and  C31_31 
    5  A    between atoms: N8_8  and  C35_35 
    6  A    between atoms: C15_15  and  C17_17 
    7  A    between atoms: C28_28  and  C34_34 

>  <TORSDO>
F 7

$$$$
all.pdbqt
 OpenBabel04112516173D

 38 42  0  0  0  0  0  0  0  0999 V2000
   66.8140   50.8080   50.5490 F   0  0  0  0  0  0  0  0  0  0  0  0
   65.7040   47.9500   52.1750 N   0  0  0  0  0  0  0  0  0  0  0  0
   67.6310   48.5700   53.0420 N   0  0  0  0  0  0  0  0  0  0  0  0
   65.6380   48.8940   51.3240 C   0  0  0  0  0  0  0  0  0  0  0  0
   66.6460   47.7720   53.0090 C   0  0  0  0  0  0  0  0  0  0  0  0
   66.6770   49.7580   51.3410 C   0  0  0  0  0  0  0  0  0  0  0  0
   67.6520   49.5370   52.2350 C   0  0  0  0  0  3  0  0  0  0  0  0
   66.6790   46.8150   53.8500 N   0  0  0  0  0  0  0  0  0  0  0  0
   66.7340   47.1390   54.8500 H   0  0  0  0  0  0  0  0  0  0  0  0
   66.6580   45.5480   53.7150 C   0  0  0  0  0  0  0  0  0  0  0  0
   65.9110   44.7520   54.3630 N   0  0  0  0  0  0  0  0  0  0  0  0
   65.9650   43.5050   54.1550 C   0  0  0  0  0  3  0  0  0  0  0  0
   66.7820   42.9130   53.2700 C   0  0  0  0  0  0  0  0  0  0  0  0
   67.5840   43.7330   52.5720 C   0  0  0  0  0  3  0  0  0  0  0  0
   67.5150   45.0520   52.8010 C   0  0  0  0  0  3  0  0  0  0  0  0
   66.7870   41.4130   53.0770 C   0  0  0  0  0  2  0  0  0  0  0  0
   66.6010   41.0680   51.6730 N   0  0  0  0  0  0  0  0  0  0  0  0
   65.2440   41.3590   51.2350 C   0  0  0  0  0  2  0  0  0  0  0  0
   65.0660   41.0250   49.7460 C   0  0  0  0  0  2  0  0  0  0  0  0
   65.3610   39.6240   49.4780 N   0  0  0  0  0  0  0  0  0  0  0  0
   66.7140   39.3260   49.9250 C   0  0  0  0  0  2  0  0  0  0  0  0
   66.8980   39.6670   51.4140 C   0  0  0  0  0  2  0  0  0  0  0  0
   65.1510   39.3150   48.0670 C   0  0  0  0  0  2  0  0  0  0  0  0
   64.1400   40.2410   47.3700 C   0  0  0  0  0  1  0  0  0  0  0  0
   64.5530   48.9360   50.5010 C   0  0  0  0  0  0  0  0  0  0  0  0
   64.4990   49.8170   49.4700 C   0  0  0  0  0  3  0  0  0  0  0  0
   63.4650   49.9260   48.6190 C   0  0  0  0  0  0  0  0  0  0  0  0
   62.4200   49.1090   48.7960 C   0  0  0  0  0  0  0  0  0  0  0  0
   63.4780   50.8130   47.6350 F   0  0  0  0  0  0  0  0  0  0  0  0
   61.3420   49.0220   48.1400 N   0  0  0  0  0  0  0  0  0  0  0  0
   62.4320   48.2190   49.7960 C   0  0  0  0  0  0  0  0  0  0  0  0
   60.6600   48.1030   48.6890 C   0  0  0  0  0  0  0  0  0  0  0  0
   61.3170   47.6280   49.6680 N   0  0  0  0  0  0  0  0  0  0  0  0
   59.3040   47.8070   48.1130 C   0  0  0  0  0  1  0  0  0  0  0  0
   63.4710   48.1340   50.6370 C   0  0  0  0  0  3  0  0  0  0  0  0
   60.8540   46.5410   50.5600 C   0  0  0  0  0  3  0  0  0  0  0  0
   60.9610   45.1130   49.9990 C   0  0  0  0  0  1  0  0  0  0  0  0
   59.4330   46.8380   51.0640 C   0  0  0  0  0  1  0  0  0  0  0  0
  1  6  1  0  0  0  0
  2  5  2  0  0  0  0
  4  6  2  0  0  0  0
  4  2  1  0  0  0  0
  5  3  1  0  0  0  0
  5  8  1  0  0  0  0
  6  7  1  0  0  0  0
  7  3  2  0  0  0  0
  8  9  1  0  0  0  0
 10  8  1  0  0  0  0
 10 11  1  0  0  0  0
 12 11  2  0  0  0  0
 13 12  1  0  0  0  0
 14 15  1  0  0  0  0
 14 13  2  0  0  0  0
 15 10  2  0  0  0  0
 16 13  1  0  0  0  0
 17 16  1  0  0  0  0
 18 17  1  0  0  0  0
 19 18  1  0  0  0  0
 20 19  1  0  0  0  0
 20 21  1  0  0  0  0
 21 22  1  0  0  0  0
 22 17  1  0  0  0  0
 23 20  1  0  0  0  0
 24 23  1  0  0  0  0
 25 35  1  0  0  0  0
 25  4  1  0  0  0  0
 26 25  2  0  0  0  0
 27 28  2  0  0  0  0
 27 26  1  0  0  0  0
 28 31  1  0  0  0  0
 29 27  1  0  0  0  0
 30 32  2  0  0  0  0
 30 28  1  0  0  0  0
 31 35  2  0  0  0  0
 32 33  1  0  0  0  0
 33 31  1  0  0  0  0
 33 36  1  0  0  0  0
 34 32  1  0  0  0  0
 36 38  1  0  0  0  0
 37 36  1  0  0  0  0
M  END
>  <MODEL>
73

>  <REMARK>
 VINA RESULT:    -7.718      3.713      6.441
 INTER + INTRA:         -11.753
 INTER:                 -10.964
 INTRA:                  -0.788
 UNBOUND:                -0.876
  7 active torsions:
  status: ('A' for Active; 'I' for Inactive)
    1  A    between atoms: N3_3  and  C15_15 
    2  A    between atoms: N4_4  and  C16_16 
    3  A    between atoms: N5_5  and  C19_19 
    4  A    between atoms: N8_8  and  C31_31 
    5  A    between atoms: N8_8  and  C35_35 
    6  A    between atoms: C15_15  and  C17_17 
    7  A    between atoms: C28_28  and  C34_34 

>  <TORSDO>
F 7

$$$$
all.pdbqt
 OpenBabel04112516173D

 38 42  0  0  0  0  0  0  0  0999 V2000
   41.2640   58.2500   74.5920 F   0  0  0  0  0  0  0  0  0  0  0  0
   42.6930   61.0470   73.1160 N   0  0  0  0  0  0  0  0  0  0  0  0
   43.4390   60.8600   75.1800 N   0  0  0  0  0  0  0  0  0  0  0  0
   41.9490   60.0150   73.1560 C   0  0  0  0  0  0  0  0  0  0  0  0
   43.4170   61.4730   74.0700 C   0  0  0  0  0  0  0  0  0  0  0  0
   41.9570   59.3440   74.3290 C   0  0  0  0  0  0  0  0  0  0  0  0
   42.7320   59.8250   75.3120 C   0  0  0  0  0  3  0  0  0  0  0  0
   44.1510   62.5110   73.9950 N   0  0  0  0  0  0  0  0  0  0  0  0
   45.0940   62.3900   74.4480 H   0  0  0  0  0  0  0  0  0  0  0  0
   43.9690   63.6620   73.4790 C   0  0  0  0  0  0  0  0  0  0  0  0
   43.6290   63.8840   72.2760 N   0  0  0  0  0  0  0  0  0  0  0  0
   43.4730   65.0680   71.8590 C   0  0  0  0  0  3  0  0  0  0  0  0
   43.6420   66.1700   72.6060 C   0  0  0  0  0  0  0  0  0  0  0  0
   44.0020   65.9630   73.8830 C   0  0  0  0  0  3  0  0  0  0  0  0
   44.1640   64.7030   74.3120 C   0  0  0  0  0  3  0  0  0  0  0  0
   43.4340   67.5540   72.0340 C   0  0  0  0  0  2  0  0  0  0  0  0
   44.6160   67.9990   71.3050 N   0  0  0  0  0  0  0  0  0  0  0  0
   45.2870   69.0840   72.0040 C   0  0  0  0  0  2  0  0  0  0  0  0
   46.5510   69.5240   71.2470 C   0  0  0  0  0  2  0  0  0  0  0  0
   46.2330   69.9550   69.8920 N   0  0  0  0  0  0  0  0  0  0  0  0
   45.5510   68.8760   69.1940 C   0  0  0  0  0  2  0  0  0  0  0  0
   44.2900   68.4290   69.9530 C   0  0  0  0  0  2  0  0  0  0  0  0
   47.4370   70.4050   69.2000 C   0  0  0  0  0  2  0  0  0  0  0  0
   48.7120   69.6510   69.6150 C   0  0  0  0  0  1  0  0  0  0  0  0
   41.2370   59.6980   72.0390 C   0  0  0  0  0  0  0  0  0  0  0  0
   41.5290   58.5820   71.3240 C   0  0  0  0  0  3  0  0  0  0  0  0
   40.8810   58.2050   70.2090 C   0  0  0  0  0  0  0  0  0  0  0  0
   39.8760   58.9760   69.7780 C   0  0  0  0  0  0  0  0  0  0  0  0
   41.2230   57.1030   69.5570 F   0  0  0  0  0  0  0  0  0  0  0  0
   39.1270   58.8370   68.7680 N   0  0  0  0  0  0  0  0  0  0  0  0
   39.5470   60.0820   70.4550 C   0  0  0  0  0  0  0  0  0  0  0  0
   38.3260   59.8210   68.7760 C   0  0  0  0  0  0  0  0  0  0  0  0
   38.5800   60.5530   69.7840 N   0  0  0  0  0  0  0  0  0  0  0  0
   37.3300   59.9150   67.6550 C   0  0  0  0  0  1  0  0  0  0  0  0
   40.2140   60.4430   71.5600 C   0  0  0  0  0  3  0  0  0  0  0  0
   37.8620   61.7990   70.1370 C   0  0  0  0  0  3  0  0  0  0  0  0
   38.7200   63.0720   70.2300 C   0  0  0  0  0  1  0  0  0  0  0  0
   37.0350   61.5890   71.4150 C   0  0  0  0  0  1  0  0  0  0  0  0
  2  4  1  0  0  0  0
  2  5  2  0  0  0  0
  3  7  2  0  0  0  0
  4  6  2  0  0  0  0
  5  3  1  0  0  0  0
  6  1  1  0  0  0  0
  6  7  1  0  0  0  0
  8  5  1  0  0  0  0
  8  9  1  0  0  0  0
 10  8  1  0  0  0  0
 10 15  1  0  0  0  0
 11 10  2  0  0  0  0
 12 11  1  0  0  0  0
 12 13  2  0  0  0  0
 13 14  1  0  0  0  0
 14 15  2  0  0  0  0
 16 13  1  0  0  0  0
 17 18  1  0  0  0  0
 17 16  1  0  0  0  0
 19 18  1  0  0  0  0
 20 19  1  0  0  0  0
 21 20  1  0  0  0  0
 21 22  1  0  0  0  0
 22 17  1  0  0  0  0
 23 24  1  0  0  0  0
 23 20  1  0  0  0  0
 25  4  1  0  0  0  0
 26 25  2  0  0  0  0
 27 26  1  0  0  0  0
 28 27  2  0  0  0  0
 28 31  1  0  0  0  0
 29 27  1  0  0  0  0
 30 32  2  0  0  0  0
 30 28  1  0  0  0  0
 31 35  2  0  0  0  0
 32 33  1  0  0  0  0
 33 36  1  0  0  0  0
 33 31  1  0  0  0  0
 34 32  1  0  0  0  0
 35 25  1  0  0  0  0
 36 37  1  0  0  0  0
 36 38  1  0  0  0  0
M  END
>  <MODEL>
74

>  <REMARK>
 VINA RESULT:    -7.716     31.191     34.037
 INTER + INTRA:         -11.750
 INTER:                 -10.721
 INTRA:                  -1.029
 UNBOUND:                -0.876
  7 active torsions:
  status: ('A' for Active; 'I' for Inactive)
    1  A    between atoms: N3_3  and  C15_15 
    2  A    between atoms: N4_4  and  C16_16 
    3  A    between atoms: N5_5  and  C19_19 
    4  A    between atoms: N8_8  and  C31_31 
    5  A    between atoms: N8_8  and  C35_35 
    6  A    between atoms: C15_15  and  C17_17 
    7  A    between atoms: C28_28  and  C34_34 

>  <TORSDO>
F 7

$$$$
all.pdbqt
 OpenBabel04112516173D

 38 42  0  0  0  0  0  0  0  0999 V2000
   59.1010   48.8450   49.5650 F   0  0  0  0  0  0  0  0  0  0  0  0
   61.2250   46.1600   50.1330 N   0  0  0  0  0  0  0  0  0  0  0  0
   59.1390   45.4630   50.2360 N   0  0  0  0  0  0  0  0  0  0  0  0
   60.9410   47.3770   49.8880 C   0  0  0  0  0  0  0  0  0  0  0  0
   60.3830   45.2250   50.3030 C   0  0  0  0  0  0  0  0  0  0  0  0
   59.6210   47.6550   49.8100 C   0  0  0  0  0  0  0  0  0  0  0  0
   58.7620   46.6420   49.9960 C   0  0  0  0  0  3  0  0  0  0  0  0
   60.7030   44.0160   50.5470 N   0  0  0  0  0  0  0  0  0  0  0  0
   60.9010   43.4530   49.6790 H   0  0  0  0  0  0  0  0  0  0  0  0
   60.8310   43.3590   51.6310 C   0  0  0  0  0  0  0  0  0  0  0  0
   60.8230   43.8570   52.7990 N   0  0  0  0  0  0  0  0  0  0  0  0
   60.9580   43.1170   53.8150 C   0  0  0  0  0  3  0  0  0  0  0  0
   61.1210   41.7850   53.7750 C   0  0  0  0  0  0  0  0  0  0  0  0
   61.1350   41.2330   52.5520 C   0  0  0  0  0  3  0  0  0  0  0  0
   60.9890   42.0290   51.4820 C   0  0  0  0  0  3  0  0  0  0  0  0
   61.2750   40.9670   55.0380 C   0  0  0  0  0  2  0  0  0  0  0  0
   62.3500   41.4940   55.8710 N   0  0  0  0  0  0  0  0  0  0  0  0
   63.6460   41.3070   55.2360 C   0  0  0  0  0  2  0  0  0  0  0  0
   64.7700   41.8950   56.1030 C   0  0  0  0  0  2  0  0  0  0  0  0
   64.7950   41.2820   57.4250 N   0  0  0  0  0  0  0  0  0  0  0  0
   63.4960   41.4570   58.0580 C   0  0  0  0  0  2  0  0  0  0  0  0
   62.3680   40.8770   57.1880 C   0  0  0  0  0  2  0  0  0  0  0  0
   65.8910   41.8250   58.2230 C   0  0  0  0  0  2  0  0  0  0  0  0
   65.6070   41.8540   59.7330 C   0  0  0  0  0  1  0  0  0  0  0  0
   61.9720   48.2540   49.7330 C   0  0  0  0  0  0  0  0  0  0  0  0
   61.9050   49.2450   48.8080 C   0  0  0  0  0  3  0  0  0  0  0  0
   62.8790   50.1440   48.5890 C   0  0  0  0  0  0  0  0  0  0  0  0
   63.9870   50.0610   49.3340 C   0  0  0  0  0  0  0  0  0  0  0  0
   62.7480   51.0840   47.6640 F   0  0  0  0  0  0  0  0  0  0  0  0
   65.0290   50.7780   49.3150 N   0  0  0  0  0  0  0  0  0  0  0  0
   64.0940   49.1040   50.2640 C   0  0  0  0  0  0  0  0  0  0  0  0
   65.8040   50.3100   50.2040 C   0  0  0  0  0  0  0  0  0  0  0  0
   65.2390   49.3190   50.7660 N   0  0  0  0  0  0  0  0  0  0  0  0
   67.1430   50.9700   50.3760 C   0  0  0  0  0  1  0  0  0  0  0  0
   63.1130   48.2130   50.4590 C   0  0  0  0  0  3  0  0  0  0  0  0
   65.8270   48.5040   51.8530 C   0  0  0  0  0  3  0  0  0  0  0  0
   66.4910   49.2830   53.0000 C   0  0  0  0  0  1  0  0  0  0  0  0
   66.7800   47.4510   51.2680 C   0  0  0  0  0  1  0  0  0  0  0  0
  1  6  1  0  0  0  0
  2  5  2  0  0  0  0
  3  5  1  0  0  0  0
  4  2  1  0  0  0  0
  5  8  1  0  0  0  0
  6  4  2  0  0  0  0
  6  7  1  0  0  0  0
  7  3  2  0  0  0  0
  8 10  1  0  0  0  0
  9  8  1  0  0  0  0
 10 11  1  0  0  0  0
 11 12  2  0  0  0  0
 13 12  1  0  0  0  0
 13 16  1  0  0  0  0
 14 13  2  0  0  0  0
 15 10  2  0  0  0  0
 15 14  1  0  0  0  0
 16 17  1  0  0  0  0
 17 22  1  0  0  0  0
 18 17  1  0  0  0  0
 18 19  1  0  0  0  0
 19 20  1  0  0  0  0
 20 21  1  0  0  0  0
 20 23  1  0  0  0  0
 22 21  1  0  0  0  0
 23 24  1  0  0  0  0
 25  4  1  0  0  0  0
 25 35  1  0  0  0  0
 26 25  2  0  0  0  0
 27 26  1  0  0  0  0
 27 28  2  0  0  0  0
 28 31  1  0  0  0  0
 29 27  1  0  0  0  0
 30 28  1  0  0  0  0
 30 32  2  0  0  0  0
 31 35  2  0  0  0  0
 31 33  1  0  0  0  0
 32 34  1  0  0  0  0
 32 33  1  0  0  0  0
 33 36  1  0  0  0  0
 36 37  1  0  0  0  0
 38 36  1  0  0  0  0
M  END
>  <MODEL>
75

>  <REMARK>
 VINA RESULT:    -7.689      3.981      6.269
 INTER + INTRA:         -11.711
 INTER:                 -10.811
 INTRA:                  -0.900
 UNBOUND:                -0.876
  7 active torsions:
  status: ('A' for Active; 'I' for Inactive)
    1  A    between atoms: N3_3  and  C15_15 
    2  A    between atoms: N4_4  and  C16_16 
    3  A    between atoms: N5_5  and  C19_19 
    4  A    between atoms: N8_8  and  C31_31 
    5  A    between atoms: N8_8  and  C35_35 
    6  A    between atoms: C15_15  and  C17_17 
    7  A    between atoms: C28_28  and  C34_34 

>  <TORSDO>
F 7

$$$$
all.pdbqt
 OpenBabel04112516173D

 38 42  0  0  0  0  0  0  0  0999 V2000
   60.6390   49.6950   49.8500 F   0  0  0  0  0  0  0  0  0  0  0  0
   62.7790   47.3130   51.1900 N   0  0  0  0  0  0  0  0  0  0  0  0
   60.7110   46.5640   51.2940 N   0  0  0  0  0  0  0  0  0  0  0  0
   62.4840   48.4250   50.6460 C   0  0  0  0  0  0  0  0  0  0  0  0
   61.9500   46.4040   51.5100 C   0  0  0  0  0  0  0  0  0  0  0  0
   61.1680   48.6180   50.4060 C   0  0  0  0  0  0  0  0  0  0  0  0
   60.3240   47.6370   50.7580 C   0  0  0  0  0  3  0  0  0  0  0  0
   62.2810   45.3000   52.0530 N   0  0  0  0  0  0  0  0  0  0  0  0
   62.5280   45.3930   53.0720 H   0  0  0  0  0  0  0  0  0  0  0  0
   62.3670   44.1110   51.6050 C   0  0  0  0  0  0  0  0  0  0  0  0
   61.4960   43.5280   50.8890 N   0  0  0  0  0  0  0  0  0  0  0  0
   61.6760   42.3410   50.4930 C   0  0  0  0  0  3  0  0  0  0  0  0
   62.7580   41.5980   50.7740 C   0  0  0  0  0  0  0  0  0  0  0  0
   63.6960   42.1900   51.5300 C   0  0  0  0  0  3  0  0  0  0  0  0
   63.4920   43.4490   51.9430 C   0  0  0  0  0  3  0  0  0  0  0  0
   62.9020   40.1820   50.2600 C   0  0  0  0  0  2  0  0  0  0  0  0
   64.2240   39.9710   49.6820 N   0  0  0  0  0  0  0  0  0  0  0  0
   64.2370   40.3040   48.2660 C   0  0  0  0  0  2  0  0  0  0  0  0
   65.6410   40.1110   47.6710 C   0  0  0  0  0  2  0  0  0  0  0  0
   66.1050   38.7400   47.8420 N   0  0  0  0  0  0  0  0  0  0  0  0
   66.0820   38.4000   49.2570 C   0  0  0  0  0  2  0  0  0  0  0  0
   64.6800   38.6000   49.8570 C   0  0  0  0  0  2  0  0  0  0  0  0
   67.4230   38.5640   47.2390 C   0  0  0  0  0  2  0  0  0  0  0  0
   68.5740   38.5300   48.2580 C   0  0  0  0  0  1  0  0  0  0  0  0
   63.5000   49.2890   50.3690 C   0  0  0  0  0  0  0  0  0  0  0  0
   64.7080   49.1540   50.9730 C   0  0  0  0  0  3  0  0  0  0  0  0
   65.7570   49.9660   50.7590 C   0  0  0  0  0  0  0  0  0  0  0  0
   65.6050   50.9710   49.8890 C   0  0  0  0  0  0  0  0  0  0  0  0
   66.9080   49.7790   51.3890 F   0  0  0  0  0  0  0  0  0  0  0  0
   66.4300   51.8580   49.5260 N   0  0  0  0  0  0  0  0  0  0  0  0
   64.4330   51.1370   49.2630 C   0  0  0  0  0  0  0  0  0  0  0  0
   65.8240   52.5910   48.6860 C   0  0  0  0  0  0  0  0  0  0  0  0
   64.6400   52.1530   48.5320 N   0  0  0  0  0  0  0  0  0  0  0  0
   66.5790   53.7540   48.1070 C   0  0  0  0  0  1  0  0  0  0  0  0
   63.3980   50.3200   49.4990 C   0  0  0  0  0  3  0  0  0  0  0  0
   63.6210   52.7420   47.6340 C   0  0  0  0  0  3  0  0  0  0  0  0
   63.7120   52.3450   46.1520 C   0  0  0  0  0  1  0  0  0  0  0  0
   63.5890   54.2690   47.8010 C   0  0  0  0  0  1  0  0  0  0  0  0
  1  6  1  0  0  0  0
  2  5  2  0  0  0  0
  3  5  1  0  0  0  0
  4  2  1  0  0  0  0
  5  8  1  0  0  0  0
  6  4  2  0  0  0  0
  6  7  1  0  0  0  0
  7  3  2  0  0  0  0
  8  9  1  0  0  0  0
 10 15  1  0  0  0  0
 10  8  1  0  0  0  0
 11 10  2  0  0  0  0
 12 13  2  0  0  0  0
 12 11  1  0  0  0  0
 13 14  1  0  0  0  0
 14 15  2  0  0  0  0
 16 13  1  0  0  0  0
 17 22  1  0  0  0  0
 17 16  1  0  0  0  0
 18 17  1  0  0  0  0
 19 20  1  0  0  0  0
 19 18  1  0  0  0  0
 20 21  1  0  0  0  0
 21 22  1  0  0  0  0
 23 20  1  0  0  0  0
 23 24  1  0  0  0  0
 25  4  1  0  0  0  0
 25 26  1  0  0  0  0
 27 26  2  0  0  0  0
 27 29  1  0  0  0  0
 28 27  1  0  0  0  0
 30 28  1  0  0  0  0
 31 35  1  0  0  0  0
 31 28  2  0  0  0  0
 32 30  2  0  0  0  0
 33 32  1  0  0  0  0
 33 31  1  0  0  0  0
 34 32  1  0  0  0  0
 35 25  2  0  0  0  0
 36 38  1  0  0  0  0
 36 33  1  0  0  0  0
 37 36  1  0  0  0  0
M  END
>  <MODEL>
76

>  <REMARK>
 VINA RESULT:    -7.672      4.252      6.288
 INTER + INTRA:         -11.688
 INTER:                 -11.142
 INTRA:                  -0.547
 UNBOUND:                -0.876
  7 active torsions:
  status: ('A' for Active; 'I' for Inactive)
    1  A    between atoms: N3_3  and  C15_15 
    2  A    between atoms: N4_4  and  C16_16 
    3  A    between atoms: N5_5  and  C19_19 
    4  A    between atoms: N8_8  and  C31_31 
    5  A    between atoms: N8_8  and  C35_35 
    6  A    between atoms: C15_15  and  C17_17 
    7  A    between atoms: C28_28  and  C34_34 

>  <TORSDO>
F 7

$$$$
all.pdbqt
 OpenBabel04112516173D

 38 42  0  0  0  0  0  0  0  0999 V2000
   53.1660   43.2620   49.4340 F   0  0  0  0  0  0  0  0  0  0  0  0
   56.5200   43.7480   50.1800 N   0  0  0  0  0  0  0  0  0  0  0  0
   55.3970   45.5710   50.6930 N   0  0  0  0  0  0  0  0  0  0  0  0
   55.5130   43.0920   49.7590 C   0  0  0  0  0  0  0  0  0  0  0  0
   56.4920   44.9350   50.6320 C   0  0  0  0  0  0  0  0  0  0  0  0
   54.3340   43.7490   49.8160 C   0  0  0  0  0  0  0  0  0  0  0  0
   54.3440   45.0000   50.2980 C   0  0  0  0  0  3  0  0  0  0  0  0
   57.5210   45.5620   51.0460 N   0  0  0  0  0  0  0  0  0  0  0  0
   57.6640   45.4890   52.0860 H   0  0  0  0  0  0  0  0  0  0  0  0
   58.4070   46.2550   50.4490 C   0  0  0  0  0  0  0  0  0  0  0  0
   58.3050   47.4860   50.1550 N   0  0  0  0  0  0  0  0  0  0  0  0
   59.2440   48.0860   49.5580 C   0  0  0  0  0  3  0  0  0  0  0  0
   60.4000   47.5150   49.1840 C   0  0  0  0  0  0  0  0  0  0  0  0
   60.5340   46.2130   49.4820 C   0  0  0  0  0  3  0  0  0  0  0  0
   59.5300   45.5890   50.1160 C   0  0  0  0  0  3  0  0  0  0  0  0
   61.4790   48.3020   48.4740 C   0  0  0  0  0  2  0  0  0  0  0  0
   62.5910   48.5890   49.3730 N   0  0  0  0  0  0  0  0  0  0  0  0
   62.9210   50.0060   49.3650 C   0  0  0  0  0  2  0  0  0  0  0  0
   64.0700   50.3060   50.3400 C   0  0  0  0  0  2  0  0  0  0  0  0
   65.2620   49.5370   50.0060 N   0  0  0  0  0  0  0  0  0  0  0  0
   64.9330   48.1200   50.0020 C   0  0  0  0  0  2  0  0  0  0  0  0
   63.7770   47.8180   49.0320 C   0  0  0  0  0  2  0  0  0  0  0  0
   66.3550   49.8610   50.9180 C   0  0  0  0  0  2  0  0  0  0  0  0
   66.9310   48.6430   51.6580 C   0  0  0  0  0  1  0  0  0  0  0  0
   55.7220   41.8250   49.3060 C   0  0  0  0  0  0  0  0  0  0  0  0
   56.1770   40.8560   50.1410 C   0  0  0  0  0  3  0  0  0  0  0  0
   56.4150   39.5860   49.7710 C   0  0  0  0  0  0  0  0  0  0  0  0
   56.1820   39.2510   48.4980 C   0  0  0  0  0  0  0  0  0  0  0  0
   56.8640   38.6930   50.6400 F   0  0  0  0  0  0  0  0  0  0  0  0
   56.3280   38.1380   47.9150 N   0  0  0  0  0  0  0  0  0  0  0  0
   55.7250   40.1710   47.6400 C   0  0  0  0  0  0  0  0  0  0  0  0
   55.9800   38.3150   46.7070 C   0  0  0  0  0  0  0  0  0  0  0  0
   55.6180   39.5240   46.5540 N   0  0  0  0  0  0  0  0  0  0  0  0
   56.0830   37.1410   45.7760 C   0  0  0  0  0  1  0  0  0  0  0  0
   55.5030   41.4340   48.0290 C   0  0  0  0  0  3  0  0  0  0  0  0
   55.1460   40.1200   45.2830 C   0  0  0  0  0  3  0  0  0  0  0  0
   53.9560   39.4190   44.6080 C   0  0  0  0  0  1  0  0  0  0  0  0
   56.3220   40.2880   44.3080 C   0  0  0  0  0  1  0  0  0  0  0  0
  1  6  1  0  0  0  0
  2  5  2  0  0  0  0
  4  6  2  0  0  0  0
  4  2  1  0  0  0  0
  5  3  1  0  0  0  0
  5  8  1  0  0  0  0
  6  7  1  0  0  0  0
  7  3  2  0  0  0  0
  8  9  1  0  0  0  0
 10  8  1  0  0  0  0
 11 10  1  0  0  0  0
 12 11  2  0  0  0  0
 13 14  2  0  0  0  0
 13 12  1  0  0  0  0
 14 15  1  0  0  0  0
 15 10  2  0  0  0  0
 16 13  1  0  0  0  0
 16 17  1  0  0  0  0
 18 17  1  0  0  0  0
 18 19  1  0  0  0  0
 20 19  1  0  0  0  0
 20 23  1  0  0  0  0
 21 20  1  0  0  0  0
 22 17  1  0  0  0  0
 22 21  1  0  0  0  0
 23 24  1  0  0  0  0
 25  4  1  0  0  0  0
 25 26  1  0  0  0  0
 27 26  2  0  0  0  0
 27 29  1  0  0  0  0
 28 27  1  0  0  0  0
 30 28  1  0  0  0  0
 31 35  1  0  0  0  0
 31 28  2  0  0  0  0
 32 30  2  0  0  0  0
 33 32  1  0  0  0  0
 33 31  1  0  0  0  0
 34 32  1  0  0  0  0
 35 25  2  0  0  0  0
 36 33  1  0  0  0  0
 37 36  1  0  0  0  0
 38 36  1  0  0  0  0
M  END
>  <MODEL>
77

>  <REMARK>
 VINA RESULT:    -7.643      5.710     12.156
 INTER + INTRA:         -11.647
 INTER:                 -10.535
 INTRA:                  -1.112
 UNBOUND:                -0.876
  7 active torsions:
  status: ('A' for Active; 'I' for Inactive)
    1  A    between atoms: N3_3  and  C15_15 
    2  A    between atoms: N4_4  and  C16_16 
    3  A    between atoms: N5_5  and  C19_19 
    4  A    between atoms: N8_8  and  C31_31 
    5  A    between atoms: N8_8  and  C35_35 
    6  A    between atoms: C15_15  and  C17_17 
    7  A    between atoms: C28_28  and  C34_34 

>  <TORSDO>
F 7

$$$$
all.pdbqt
 OpenBabel04112516173D

 38 42  0  0  0  0  0  0  0  0999 V2000
   60.7870   48.8950   48.0490 F   0  0  0  0  0  0  0  0  0  0  0  0
   62.4710   46.6970   50.1400 N   0  0  0  0  0  0  0  0  0  0  0  0
   60.5280   45.8200   49.5880 N   0  0  0  0  0  0  0  0  0  0  0  0
   62.3200   47.7710   49.4740 C   0  0  0  0  0  0  0  0  0  0  0  0
   61.6300   45.7470   50.2110 C   0  0  0  0  0  0  0  0  0  0  0  0
   61.1530   47.8720   48.8010 C   0  0  0  0  0  0  0  0  0  0  0  0
   60.2900   46.8500   48.9000 C   0  0  0  0  0  3  0  0  0  0  0  0
   61.8150   44.6830   50.8870 N   0  0  0  0  0  0  0  0  0  0  0  0
   62.8310   44.4580   51.0420 H   0  0  0  0  0  0  0  0  0  0  0  0
   61.0130   43.8440   51.4100 C   0  0  0  0  0  0  0  0  0  0  0  0
   60.2560   44.0690   52.4040 N   0  0  0  0  0  0  0  0  0  0  0  0
   59.4920   43.1660   52.8510 C   0  0  0  0  0  3  0  0  0  0  0  0
   59.4020   41.9240   52.3480 C   0  0  0  0  0  0  0  0  0  0  0  0
   60.1920   41.6580   51.2970 C   0  0  0  0  0  3  0  0  0  0  0  0
   60.9960   42.6260   50.8320 C   0  0  0  0  0  3  0  0  0  0  0  0
   58.4610   40.8980   52.9390 C   0  0  0  0  0  2  0  0  0  0  0  0
   57.3750   40.5950   52.0140 N   0  0  0  0  0  0  0  0  0  0  0  0
   56.4850   41.7360   51.8570 C   0  0  0  0  0  2  0  0  0  0  0  0
   55.3630   41.4210   50.8550 C   0  0  0  0  0  2  0  0  0  0  0  0
   54.5840   40.2650   51.2780 N   0  0  0  0  0  0  0  0  0  0  0  0
   55.4730   39.1250   51.4470 C   0  0  0  0  0  2  0  0  0  0  0  0
   56.6020   39.4400   52.4430 C   0  0  0  0  0  2  0  0  0  0  0  0
   53.5000   40.0020   50.3360 C   0  0  0  0  0  2  0  0  0  0  0  0
   53.1060   38.5190   50.2360 C   0  0  0  0  0  1  0  0  0  0  0  0
   63.3260   48.6890   49.5080 C   0  0  0  0  0  0  0  0  0  0  0  0
   64.4160   48.4950   50.2930 C   0  0  0  0  0  3  0  0  0  0  0  0
   65.4450   49.3530   50.3870 C   0  0  0  0  0  0  0  0  0  0  0  0
   65.3970   50.4710   49.6550 C   0  0  0  0  0  0  0  0  0  0  0  0
   66.4760   49.1010   51.1790 F   0  0  0  0  0  0  0  0  0  0  0  0
   66.2280   51.4220   49.5750 N   0  0  0  0  0  0  0  0  0  0  0  0
   64.3450   50.7020   48.8600 C   0  0  0  0  0  0  0  0  0  0  0  0
   65.7420   52.2570   48.7530 C   0  0  0  0  0  0  0  0  0  0  0  0
   64.6250   51.8200   48.3290 N   0  0  0  0  0  0  0  0  0  0  0  0
   66.5280   53.5100   48.4890 C   0  0  0  0  0  1  0  0  0  0  0  0
   63.3250   49.8360   48.7890 C   0  0  0  0  0  3  0  0  0  0  0  0
   63.7490   52.5120   47.3570 C   0  0  0  0  0  3  0  0  0  0  0  0
   64.1070   52.3300   45.8730 C   0  0  0  0  0  1  0  0  0  0  0  0
   63.6260   54.0000   47.7230 C   0  0  0  0  0  1  0  0  0  0  0  0
  1  6  1  0  0  0  0
  2  5  2  0  0  0  0
  3  5  1  0  0  0  0
  4 25  1  0  0  0  0
  4  2  1  0  0  0  0
  5  8  1  0  0  0  0
  6  7  1  0  0  0  0
  6  4  2  0  0  0  0
  7  3  2  0  0  0  0
  8  9  1  0  0  0  0
  8 10  1  0  0  0  0
 10 11  1  0  0  0  0
 11 12  2  0  0  0  0
 13 12  1  0  0  0  0
 13 16  1  0  0  0  0
 14 13  2  0  0  0  0
 15 14  1  0  0  0  0
 15 10  2  0  0  0  0
 17 22  1  0  0  0  0
 17 16  1  0  0  0  0
 18 17  1  0  0  0  0
 19 20  1  0  0  0  0
 19 18  1  0  0  0  0
 20 21  1  0  0  0  0
 21 22  1  0  0  0  0
 23 20  1  0  0  0  0
 24 23  1  0  0  0  0
 25 26  1  0  0  0  0
 26 27  2  0  0  0  0
 27 29  1  0  0  0  0
 28 27  1  0  0  0  0
 30 28  1  0  0  0  0
 31 28  2  0  0  0  0
 32 30  2  0  0  0  0
 33 32  1  0  0  0  0
 33 31  1  0  0  0  0
 34 32  1  0  0  0  0
 35 31  1  0  0  0  0
 35 25  2  0  0  0  0
 36 38  1  0  0  0  0
 36 33  1  0  0  0  0
 37 36  1  0  0  0  0
M  END
>  <MODEL>
78

>  <REMARK>
 VINA RESULT:    -7.627      2.809      4.399
 INTER + INTRA:         -11.624
 INTER:                 -11.204
 INTRA:                  -0.420
 UNBOUND:                -0.876
  7 active torsions:
  status: ('A' for Active; 'I' for Inactive)
    1  A    between atoms: N3_3  and  C15_15 
    2  A    between atoms: N4_4  and  C16_16 
    3  A    between atoms: N5_5  and  C19_19 
    4  A    between atoms: N8_8  and  C31_31 
    5  A    between atoms: N8_8  and  C35_35 
    6  A    between atoms: C15_15  and  C17_17 
    7  A    between atoms: C28_28  and  C34_34 

>  <TORSDO>
F 7

$$$$
all.pdbqt
 OpenBabel04112516173D

 38 42  0  0  0  0  0  0  0  0999 V2000
   59.4230   49.2150   49.6440 F   0  0  0  0  0  0  0  0  0  0  0  0
   61.5840   46.5100   49.8800 N   0  0  0  0  0  0  0  0  0  0  0  0
   59.5180   45.8100   50.1810 N   0  0  0  0  0  0  0  0  0  0  0  0
   61.2800   47.7340   49.7130 C   0  0  0  0  0  0  0  0  0  0  0  0
   60.7600   45.5690   50.1050 C   0  0  0  0  0  0  0  0  0  0  0  0
   59.9610   48.0160   49.7870 C   0  0  0  0  0  0  0  0  0  0  0  0
   59.1220   46.9970   50.0270 C   0  0  0  0  0  3  0  0  0  0  0  0
   61.0990   44.3510   50.2680 N   0  0  0  0  0  0  0  0  0  0  0  0
   60.7290   43.7110   49.5190 H   0  0  0  0  0  0  0  0  0  0  0  0
   61.7970   43.7620   51.1560 C   0  0  0  0  0  0  0  0  0  0  0  0
   62.5300   42.7440   50.9600 N   0  0  0  0  0  0  0  0  0  0  0  0
   63.1860   42.2300   51.9120 C   0  0  0  0  0  3  0  0  0  0  0  0
   63.1800   42.6820   53.1760 C   0  0  0  0  0  0  0  0  0  0  0  0
   62.4130   43.7580   53.4100 C   0  0  0  0  0  3  0  0  0  0  0  0
   61.7220   44.2930   52.3920 C   0  0  0  0  0  3  0  0  0  0  0  0
   63.9950   42.0130   54.2600 C   0  0  0  0  0  2  0  0  0  0  0  0
   63.1440   41.5960   55.3680 N   0  0  0  0  0  0  0  0  0  0  0  0
   63.8460   41.7010   56.6380 C   0  0  0  0  0  2  0  0  0  0  0  0
   62.9310   41.2920   57.8040 C   0  0  0  0  0  2  0  0  0  0  0  0
   62.4420   39.9290   57.6410 N   0  0  0  0  0  0  0  0  0  0  0  0
   61.7500   39.8180   56.3660 C   0  0  0  0  0  2  0  0  0  0  0  0
   62.6600   40.2340   55.1980 C   0  0  0  0  0  2  0  0  0  0  0  0
   61.6070   39.5440   58.7740 C   0  0  0  0  0  2  0  0  0  0  0  0
   60.4830   40.5450   59.0880 C   0  0  0  0  0  1  0  0  0  0  0  0
   62.2930   48.6160   49.4800 C   0  0  0  0  0  0  0  0  0  0  0  0
   62.1730   49.5710   48.5230 C   0  0  0  0  0  3  0  0  0  0  0  0
   63.1260   50.4720   48.2280 C   0  0  0  0  0  0  0  0  0  0  0  0
   64.2660   50.4290   48.9260 C   0  0  0  0  0  0  0  0  0  0  0  0
   62.9430   51.3750   47.2760 F   0  0  0  0  0  0  0  0  0  0  0  0
   65.2970   51.1560   48.8350 N   0  0  0  0  0  0  0  0  0  0  0  0
   64.4250   49.5090   49.8850 C   0  0  0  0  0  0  0  0  0  0  0  0
   66.1160   50.7300   49.7060 C   0  0  0  0  0  0  0  0  0  0  0  0
   65.5880   49.7550   50.3290 N   0  0  0  0  0  0  0  0  0  0  0  0
   67.4520   51.4110   49.7960 C   0  0  0  0  0  1  0  0  0  0  0  0
   63.4640   48.6160   50.1560 C   0  0  0  0  0  3  0  0  0  0  0  0
   66.2320   48.9880   51.4190 C   0  0  0  0  0  3  0  0  0  0  0  0
   66.6080   47.5330   51.0930 C   0  0  0  0  0  1  0  0  0  0  0  0
   65.3840   49.0720   52.6980 C   0  0  0  0  0  1  0  0  0  0  0  0
  1  6  1  0  0  0  0
  2  5  2  0  0  0  0
  4  6  2  0  0  0  0
  4  2  1  0  0  0  0
  5  3  1  0  0  0  0
  5  8  1  0  0  0  0
  6  7  1  0  0  0  0
  7  3  2  0  0  0  0
  8 10  1  0  0  0  0
  9  8  1  0  0  0  0
 10 15  1  0  0  0  0
 11 10  2  0  0  0  0
 11 12  1  0  0  0  0
 12 13  2  0  0  0  0
 13 14  1  0  0  0  0
 13 16  1  0  0  0  0
 15 14  2  0  0  0  0
 16 17  1  0  0  0  0
 17 18  1  0  0  0  0
 18 19  1  0  0  0  0
 20 19  1  0  0  0  0
 20 23  1  0  0  0  0
 21 20  1  0  0  0  0
 22 17  1  0  0  0  0
 22 21  1  0  0  0  0
 23 24  1  0  0  0  0
 25  4  1  0  0  0  0
 25 35  1  0  0  0  0
 26 25  2  0  0  0  0
 27 26  1  0  0  0  0
 27 28  2  0  0  0  0
 28 31  1  0  0  0  0
 29 27  1  0  0  0  0
 30 28  1  0  0  0  0
 30 32  2  0  0  0  0
 31 35  2  0  0  0  0
 31 33  1  0  0  0  0
 32 34  1  0  0  0  0
 32 33  1  0  0  0  0
 33 36  1  0  0  0  0
 36 38  1  0  0  0  0
 37 36  1  0  0  0  0
M  END
>  <MODEL>
79

>  <REMARK>
 VINA RESULT:    -7.593      3.813      5.665
 INTER + INTRA:         -11.576
 INTER:                 -10.604
 INTRA:                  -0.973
 UNBOUND:                -0.876
  7 active torsions:
  status: ('A' for Active; 'I' for Inactive)
    1  A    between atoms: N3_3  and  C15_15 
    2  A    between atoms: N4_4  and  C16_16 
    3  A    between atoms: N5_5  and  C19_19 
    4  A    between atoms: N8_8  and  C31_31 
    5  A    between atoms: N8_8  and  C35_35 
    6  A    between atoms: C15_15  and  C17_17 
    7  A    between atoms: C28_28  and  C34_34 

>  <TORSDO>
F 7

$$$$
all.pdbqt
 OpenBabel04112516173D

 38 42  0  0  0  0  0  0  0  0999 V2000
   39.3610   63.2070   70.5030 F   0  0  0  0  0  0  0  0  0  0  0  0
   42.2100   62.1940   72.2060 N   0  0  0  0  0  0  0  0  0  0  0  0
   42.1510   64.3940   72.1460 N   0  0  0  0  0  0  0  0  0  0  0  0
   41.1250   62.0190   71.5630 C   0  0  0  0  0  0  0  0  0  0  0  0
   42.7230   63.3180   72.4990 C   0  0  0  0  0  0  0  0  0  0  0  0
   40.4970   63.1520   71.1780 C   0  0  0  0  0  0  0  0  0  0  0  0
   41.0690   64.3200   71.5040 C   0  0  0  0  0  3  0  0  0  0  0  0
   43.8120   63.4560   73.1460 N   0  0  0  0  0  0  0  0  0  0  0  0
   44.5980   63.8430   72.5630 H   0  0  0  0  0  0  0  0  0  0  0  0
   44.1320   63.2190   74.3560 C   0  0  0  0  0  0  0  0  0  0  0  0
   43.9050   63.9870   75.3420 N   0  0  0  0  0  0  0  0  0  0  0  0
   44.2640   63.6590   76.5090 C   0  0  0  0  0  3  0  0  0  0  0  0
   44.8960   62.5180   76.8220 C   0  0  0  0  0  0  0  0  0  0  0  0
   45.1490   61.6880   75.7990 C   0  0  0  0  0  3  0  0  0  0  0  0
   44.7630   62.0470   74.5650 C   0  0  0  0  0  3  0  0  0  0  0  0
   45.2920   62.1960   78.2470 C   0  0  0  0  0  2  0  0  0  0  0  0
   46.0430   60.9480   78.3080 N   0  0  0  0  0  0  0  0  0  0  0  0
   45.3130   59.9310   79.0490 C   0  0  0  0  0  2  0  0  0  0  0  0
   46.0950   58.6080   79.0800 C   0  0  0  0  0  2  0  0  0  0  0  0
   47.4090   58.7850   79.6840 N   0  0  0  0  0  0  0  0  0  0  0  0
   48.1390   59.8100   78.9530 C   0  0  0  0  0  2  0  0  0  0  0  0
   47.3540   61.1320   78.9130 C   0  0  0  0  0  2  0  0  0  0  0  0
   48.1240   57.5130   79.7410 C   0  0  0  0  0  2  0  0  0  0  0  0
   47.5350   56.4260   78.8250 C   0  0  0  0  0  1  0  0  0  0  0  0
   40.7170   60.7400   71.3350 C   0  0  0  0  0  0  0  0  0  0  0  0
   41.4520   59.6890   71.7810 C   0  0  0  0  0  3  0  0  0  0  0  0
   41.1220   58.4000   71.5910 C   0  0  0  0  0  0  0  0  0  0  0  0
   39.9940   58.1330   70.9240 C   0  0  0  0  0  0  0  0  0  0  0  0
   41.8900   57.4220   72.0500 F   0  0  0  0  0  0  0  0  0  0  0  0
   39.4780   57.0190   70.6200 N   0  0  0  0  0  0  0  0  0  0  0  0
   39.2340   59.1380   70.4730 C   0  0  0  0  0  0  0  0  0  0  0  0
   38.4100   57.2770   69.9860 C   0  0  0  0  0  0  0  0  0  0  0  0
   38.2700   58.5380   69.9070 N   0  0  0  0  0  0  0  0  0  0  0  0
   37.6050   56.1140   69.4800 C   0  0  0  0  0  1  0  0  0  0  0  0
   39.5860   60.4160   70.6670 C   0  0  0  0  0  3  0  0  0  0  0  0
   37.1470   59.2330   69.2380 C   0  0  0  0  0  3  0  0  0  0  0  0
   37.5040   60.0420   67.9810 C   0  0  0  0  0  1  0  0  0  0  0  0
   36.3750   60.0900   70.2530 C   0  0  0  0  0  1  0  0  0  0  0  0
  1  6  1  0  0  0  0
  2  5  2  0  0  0  0
  3  5  1  0  0  0  0
  4  2  1  0  0  0  0
  5  8  1  0  0  0  0
  6  7  1  0  0  0  0
  6  4  2  0  0  0  0
  7  3  2  0  0  0  0
  8 10  1  0  0  0  0
  9  8  1  0  0  0  0
 10 15  2  0  0  0  0
 10 11  1  0  0  0  0
 11 12  2  0  0  0  0
 12 13  1  0  0  0  0
 13 16  1  0  0  0  0
 14 13  2  0  0  0  0
 15 14  1  0  0  0  0
 16 17  1  0  0  0  0
 17 22  1  0  0  0  0
 17 18  1  0  0  0  0
 18 19  1  0  0  0  0
 19 20  1  0  0  0  0
 20 23  1  0  0  0  0
 21 20  1  0  0  0  0
 22 21  1  0  0  0  0
 24 23  1  0  0  0  0
 25  4  1  0  0  0  0
 25 26  1  0  0  0  0
 27 26  2  0  0  0  0
 27 29  1  0  0  0  0
 28 27  1  0  0  0  0
 30 28  1  0  0  0  0
 31 35  1  0  0  0  0
 31 28  2  0  0  0  0
 32 30  2  0  0  0  0
 33 32  1  0  0  0  0
 33 31  1  0  0  0  0
 34 32  1  0  0  0  0
 35 25  2  0  0  0  0
 36 33  1  0  0  0  0
 36 38  1  0  0  0  0
 37 36  1  0  0  0  0
M  END
>  <MODEL>
80

>  <REMARK>
 VINA RESULT:    -7.581     32.062     34.059
 INTER + INTRA:         -11.560
 INTER:                 -10.726
 INTRA:                  -0.834
 UNBOUND:                -0.876
  7 active torsions:
  status: ('A' for Active; 'I' for Inactive)
    1  A    between atoms: N3_3  and  C15_15 
    2  A    between atoms: N4_4  and  C16_16 
    3  A    between atoms: N5_5  and  C19_19 
    4  A    between atoms: N8_8  and  C31_31 
    5  A    between atoms: N8_8  and  C35_35 
    6  A    between atoms: C15_15  and  C17_17 
    7  A    between atoms: C28_28  and  C34_34 

>  <TORSDO>
F 7

$$$$
