7VON_Alectinib_px8W5bK_out
     RDKit          3D

 70 75  0  0  0  0  0  0  0  0999 V2000
  116.5500  142.9430  217.3250 C   0  0  0  0  0  0  0  0  0  0  0  0
  117.5610  142.7020  216.2090 C   0  0  0  0  0  0  0  0  0  0  0  0
  117.4330  141.3370  215.6160 C   0  0  0  0  0  0  0  0  0  0  0  0
  118.0710  140.2680  216.2420 C   0  0  0  0  0  0  0  0  0  0  0  0
  117.9740  138.9720  215.7120 C   0  0  0  0  0  0  0  0  0  0  0  0
  117.2260  138.7320  214.5340 C   0  0  0  0  0  0  0  0  0  0  0  0
  116.5920  139.8340  213.9250 C   0  0  0  0  0  0  0  0  0  0  0  0
  116.6940  141.1200  214.4600 C   0  0  0  0  0  0  0  0  0  0  0  0
  116.0460  142.1800  213.8150 N   0  0  0  0  0  0  0  0  0  0  0  0
  114.6130  142.3610  214.0840 C   0  0  0  0  0  0  0  0  0  0  0  0
  114.1980  143.8120  213.8330 C   0  0  0  0  0  0  0  0  0  0  0  0
  114.6060  144.2680  212.4310 C   0  0  0  0  0  0  0  0  0  0  0  0
  114.2530  145.6730  212.2400 N   0  0  0  0  0  0  0  0  0  0  0  0
  114.5250  146.0970  210.8590 C   0  0  0  0  0  0  0  0  0  0  0  0
  114.1600  147.5690  210.6860 C   0  0  0  0  0  0  0  0  0  0  0  0
  114.8940  148.3750  211.6100 O   0  0  0  0  0  0  0  0  0  0  0  0
  114.6100  147.9910  212.9550 C   0  0  0  0  0  0  0  0  0  0  0  0
  114.9870  146.5300  213.1820 C   0  0  0  0  0  0  0  0  0  0  0  0
  116.1120  144.0760  212.2420 C   0  0  0  0  0  0  0  0  0  0  0  0
  116.5240  142.6260  212.5010 C   0  0  0  0  0  0  0  0  0  0  0  0
  117.0860  137.3280  213.9090 C   0  0  0  0  0  0  0  0  0  0  0  0
  117.6600  137.3410  212.4740 C   0  0  0  0  0  0  0  0  0  0  0  0
  115.5950  136.9230  213.8710 C   0  0  0  0  0  0  0  0  0  0  0  0
  117.8440  136.3160  214.7280 C   0  0  0  0  0  0  0  0  0  0  0  0
  117.9240  134.9770  214.4440 N   0  0  0  0  0  0  0  0  0  0  0  0
  118.6930  134.3370  215.3890 C   0  0  0  0  0  0  0  0  0  0  0  0
  119.0430  132.9860  215.4970 C   0  0  0  0  0  0  0  0  0  0  0  0
  119.8490  132.6100  216.5750 C   0  0  0  0  0  0  0  0  0  0  0  0
  120.2280  131.2390  216.7230 C   0  0  0  0  0  0  0  0  0  0  0  0
  120.5350  130.1270  216.8430 N   0  0  0  0  0  0  0  0  0  0  0  0
  120.2870  133.5500  217.5040 C   0  0  0  0  0  0  0  0  0  0  0  0
  119.9300  134.8980  217.3830 C   0  0  0  0  0  0  0  0  0  0  0  0
  119.1170  135.3040  216.3040 C   0  0  0  0  0  0  0  0  0  0  0  0
  118.5720  136.5500  215.8730 C   0  0  0  0  0  0  0  0  0  0  0  0
  118.6830  137.8760  216.4360 C   0  0  0  0  0  0  0  0  0  0  0  0
  119.3240  138.1040  217.4550 O   0  0  0  0  0  0  0  0  0  0  0  0
  117.0452  142.8250  218.3001 H   0  0  0  0  0  0  0  0  0  0  0  0
  116.1461  143.9626  217.2399 H   0  0  0  0  0  0  0  0  0  0  0  0
  115.7295  142.2153  217.2399 H   0  0  0  0  0  0  0  0  0  0  0  0
  117.3994  143.4486  215.4175 H   0  0  0  0  0  0  0  0  0  0  0  0
  118.5685  142.7887  216.6419 H   0  0  0  0  0  0  0  0  0  0  0  0
  118.6548  140.4411  217.1581 H   0  0  0  0  0  0  0  0  0  0  0  0
  116.0042  139.6776  213.0085 H   0  0  0  0  0  0  0  0  0  0  0  0
  114.0344  141.6997  213.4222 H   0  0  0  0  0  0  0  0  0  0  0  0
  114.4153  142.1123  215.1371 H   0  0  0  0  0  0  0  0  0  0  0  0
  113.1059  143.8957  213.9341 H   0  0  0  0  0  0  0  0  0  0  0  0
  114.7053  144.4524  214.5696 H   0  0  0  0  0  0  0  0  0  0  0  0
  114.0700  143.6624  211.6854 H   0  0  0  0  0  0  0  0  0  0  0  0
  115.5937  145.9579  210.6385 H   0  0  0  0  0  0  0  0  0  0  0  0
  113.9208  145.4905  210.1683 H   0  0  0  0  0  0  0  0  0  0  0  0
  114.4000  147.8840  209.6597 H   0  0  0  0  0  0  0  0  0  0  0  0
  113.0842  147.6953  210.8777 H   0  0  0  0  0  0  0  0  0  0  0  0
  115.1881  148.6256  213.6428 H   0  0  0  0  0  0  0  0  0  0  0  0
  113.5330  148.1147  213.1415 H   0  0  0  0  0  0  0  0  0  0  0  0
  116.0682  146.4033  213.0242 H   0  0  0  0  0  0  0  0  0  0  0  0
  114.7260  146.2439  214.2116 H   0  0  0  0  0  0  0  0  0  0  0  0
  116.3810  144.3461  211.2102 H   0  0  0  0  0  0  0  0  0  0  0  0
  116.6373  144.7203  212.9624 H   0  0  0  0  0  0  0  0  0  0  0  0
  116.0909  141.9823  211.7212 H   0  0  0  0  0  0  0  0  0  0  0  0
  117.6219  142.5605  212.4821 H   0  0  0  0  0  0  0  0  0  0  0  0
  118.7588  137.3659  212.5188 H   0  0  0  0  0  0  0  0  0  0  0  0
  117.3352  136.4353  211.9409 H   0  0  0  0  0  0  0  0  0  0  0  0
  117.2945  138.2311  211.9409 H   0  0  0  0  0  0  0  0  0  0  0  0
  115.2167  136.8202  214.8988 H   0  0  0  0  0  0  0  0  0  0  0  0
  115.0181  137.6970  213.3436 H   0  0  0  0  0  0  0  0  0  0  0  0
  115.4890  135.9635  213.3436 H   0  0  0  0  0  0  0  0  0  0  0  0
  117.4840  134.5220  213.6560 H   0  0  0  0  0  0  0  0  0  0  0  0
  118.6961  132.2469  214.7599 H   0  0  0  0  0  0  0  0  0  0  0  0
  120.9215  133.2293  218.3434 H   0  0  0  0  0  0  0  0  0  0  0  0
  120.2800  135.6337  218.1221 H   0  0  0  0  0  0  0  0  0  0  0  0
  1  2  1  0
  2  3  1  0
  3  4  2  0
  4  5  1  0
  5  6  2  0
  6  7  1  0
  7  8  2  0
  8  9  1  0
  9 10  1  0
 10 11  1  0
 11 12  1  0
 12 13  1  0
 13 14  1  0
 14 15  1  0
 15 16  1  0
 16 17  1  0
 17 18  1  0
 12 19  1  0
 19 20  1  0
  6 21  1  0
 21 22  1  0
 21 23  1  0
 21 24  1  0
 24 25  1  0
 25 26  1  0
 26 27  2  0
 27 28  1  0
 28 29  1  0
 29 30  3  0
 28 31  2  0
 31 32  1  0
 32 33  2  0
 33 34  1  0
 34 35  1  0
 35 36  2  0
  8  3  1  0
 20  9  1  0
 34 24  2  0
 35  5  1  0
 18 13  1  0
 33 26  1  0
  1 37  1  0
  1 38  1  0
  1 39  1  0
  2 40  1  0
  2 41  1  0
  4 42  1  0
  7 43  1  0
 10 44  1  0
 10 45  1  0
 11 46  1  0
 11 47  1  0
 12 48  1  0
 14 49  1  0
 14 50  1  0
 15 51  1  0
 15 52  1  0
 17 53  1  0
 17 54  1  0
 18 55  1  0
 18 56  1  0
 19 57  1  0
 19 58  1  0
 20 59  1  0
 20 60  1  0
 22 61  1  0
 22 62  1  0
 22 63  1  0
 23 64  1  0
 23 65  1  0
 23 66  1  0
 25 67  1  0
 27 68  1  0
 31 69  1  0
 32 70  1  0
M  END
>  <meeko>  (1) 
{"is_sidechain": [false], "free_energy": -7.099, "intermolecular_energy": -8.759, "internal_energy": -0.967}

$$$$
7VON_Alectinib_px8W5bK_out
     RDKit          3D

 70 75  0  0  0  0  0  0  0  0999 V2000
  121.6650  132.8670  216.2630 C   0  0  0  0  0  0  0  0  0  0  0  0
  120.2240  132.5110  216.6120 C   0  0  0  0  0  0  0  0  0  0  0  0
  119.2450  133.4740  216.0250 C   0  0  0  0  0  0  0  0  0  0  0  0
  119.3740  134.8290  216.3190 C   0  0  0  0  0  0  0  0  0  0  0  0
  118.4710  135.7630  215.7860 C   0  0  0  0  0  0  0  0  0  0  0  0
  117.4160  135.3400  214.9410 C   0  0  0  0  0  0  0  0  0  0  0  0
  117.3130  133.9620  214.6620 C   0  0  0  0  0  0  0  0  0  0  0  0
  118.2160  133.0410  215.1980 C   0  0  0  0  0  0  0  0  0  0  0  0
  118.0680  131.6830  214.8900 N   0  0  0  0  0  0  0  0  0  0  0  0
  117.5860  131.3430  213.5440 C   0  0  0  0  0  0  0  0  0  0  0  0
  118.0320  129.9330  213.1540 C   0  0  0  0  0  0  0  0  0  0  0  0
  117.6180  128.9100  214.2140 C   0  0  0  0  0  0  0  0  0  0  0  0
  118.1080  127.5830  213.8470 N   0  0  0  0  0  0  0  0  0  0  0  0
  119.0110  127.0550  214.8800 C   0  0  0  0  0  0  0  0  0  0  0  0
  119.5180  125.6760  214.4700 C   0  0  0  0  0  0  0  0  0  0  0  0
  120.1890  125.7470  213.2110 O   0  0  0  0  0  0  0  0  0  0  0  0
  119.3100  126.2290  212.1940 C   0  0  0  0  0  0  0  0  0  0  0  0
  118.7980  127.6210  212.5500 C   0  0  0  0  0  0  0  0  0  0  0  0
  118.1830  129.3190  215.5760 C   0  0  0  0  0  0  0  0  0  0  0  0
  117.7410  130.7330  215.9590 C   0  0  0  0  0  0  0  0  0  0  0  0
  116.3960  136.3230  214.3280 C   0  0  0  0  0  0  0  0  0  0  0  0
  114.9730  135.9530  214.8010 C   0  0  0  0  0  0  0  0  0  0  0  0
  116.4690  136.2510  212.7860 C   0  0  0  0  0  0  0  0  0  0  0  0
  116.7040  137.7320  214.7640 C   0  0  0  0  0  0  0  0  0  0  0  0
  115.9890  138.8420  214.3970 N   0  0  0  0  0  0  0  0  0  0  0  0
  116.5340  139.9680  214.9690 C   0  0  0  0  0  0  0  0  0  0  0  0
  116.1360  141.3060  214.8730 C   0  0  0  0  0  0  0  0  0  0  0  0
  116.8860  142.2580  215.5710 C   0  0  0  0  0  0  0  0  0  0  0  0
  116.5130  143.6360  215.4990 C   0  0  0  0  0  0  0  0  0  0  0  0
  116.2110  144.7540  215.4410 N   0  0  0  0  0  0  0  0  0  0  0  0
  117.9890  141.8810  216.3340 C   0  0  0  0  0  0  0  0  0  0  0  0
  118.3750  140.5380  216.4210 C   0  0  0  0  0  0  0  0  0  0  0  0
  117.6350  139.5590  215.7260 C   0  0  0  0  0  0  0  0  0  0  0  0
  117.7300  138.1420  215.5860 C   0  0  0  0  0  0  0  0  0  0  0  0
  118.6710  137.1980  216.1430 C   0  0  0  0  0  0  0  0  0  0  0  0
  119.5910  137.5440  216.8750 O   0  0  0  0  0  0  0  0  0  0  0  0
  122.2420  133.0095  217.1886 H   0  0  0  0  0  0  0  0  0  0  0  0
  122.1117  132.0522  215.6743 H   0  0  0  0  0  0  0  0  0  0  0  0
  121.6809  133.7961  215.6743 H   0  0  0  0  0  0  0  0  0  0  0  0
  120.0048  131.5044  216.2264 H   0  0  0  0  0  0  0  0  0  0  0  0
  120.1224  132.5525  217.7065 H   0  0  0  0  0  0  0  0  0  0  0  0
  120.1894  135.1703  216.9737 H   0  0  0  0  0  0  0  0  0  0  0  0
  116.5040  133.6044  214.0081 H   0  0  0  0  0  0  0  0  0  0  0  0
  116.4872  131.3916  213.5303 H   0  0  0  0  0  0  0  0  0  0  0  0
  118.0070  132.0604  212.8243 H   0  0  0  0  0  0  0  0  0  0  0  0
  117.5686  129.6626  212.1937 H   0  0  0  0  0  0  0  0  0  0  0  0
  119.1288  129.9246  213.0706 H   0  0  0  0  0  0  0  0  0  0  0  0
  116.5201  128.8787  214.2746 H   0  0  0  0  0  0  0  0  0  0  0  0
  119.8657  127.7369  215.0007 H   0  0  0  0  0  0  0  0  0  0  0  0
  118.4646  126.9722  215.8311 H   0  0  0  0  0  0  0  0  0  0  0  0
  120.2178  125.3052  215.2334 H   0  0  0  0  0  0  0  0  0  0  0  0
  118.6608  124.9926  214.3798 H   0  0  0  0  0  0  0  0  0  0  0  0
  119.8525  126.2758  211.2382 H   0  0  0  0  0  0  0  0  0  0  0  0
  118.4531  125.5445  212.1090 H   0  0  0  0  0  0  0  0  0  0  0  0
  119.6469  128.3180  212.6087 H   0  0  0  0  0  0  0  0  0  0  0  0
  118.0939  127.9574  211.7747 H   0  0  0  0  0  0  0  0  0  0  0  0
  117.8250  128.6125  216.3393 H   0  0  0  0  0  0  0  0  0  0  0  0
  119.2812  129.3028  215.5155 H   0  0  0  0  0  0  0  0  0  0  0  0
  116.6541  130.7388  216.1279 H   0  0  0  0  0  0  0  0  0  0  0  0
  118.2698  131.0341  216.8753 H   0  0  0  0  0  0  0  0  0  0  0  0
  114.9426  135.9451  215.9005 H   0  0  0  0  0  0  0  0  0  0  0  0
  114.2555  136.6944  214.4197 H   0  0  0  0  0  0  0  0  0  0  0  0
  114.7075  134.9560  214.4197 H   0  0  0  0  0  0  0  0  0  0  0  0
  117.2231  135.5073  212.4889 H   0  0  0  0  0  0  0  0  0  0  0  0
  115.4873  135.9578  212.3857 H   0  0  0  0  0  0  0  0  0  0  0  0
  116.7486  137.2367  212.3857 H   0  0  0  0  0  0  0  0  0  0  0  0
  115.1760  138.8380  213.7950 H   0  0  0  0  0  0  0  0  0  0  0  0
  115.2640  141.5988  214.2698 H   0  0  0  0  0  0  0  0  0  0  0  0
  118.5635  142.6477  216.8745 H   0  0  0  0  0  0  0  0  0  0  0  0
  119.2472  140.2491  217.0258 H   0  0  0  0  0  0  0  0  0  0  0  0
  1  2  1  0
  2  3  1  0
  3  4  2  0
  4  5  1  0
  5  6  2  0
  6  7  1  0
  7  8  2  0
  8  9  1  0
  9 10  1  0
 10 11  1  0
 11 12  1  0
 12 13  1  0
 13 14  1  0
 14 15  1  0
 15 16  1  0
 16 17  1  0
 17 18  1  0
 12 19  1  0
 19 20  1  0
  6 21  1  0
 21 22  1  0
 21 23  1  0
 21 24  1  0
 24 25  1  0
 25 26  1  0
 26 27  2  0
 27 28  1  0
 28 29  1  0
 29 30  3  0
 28 31  2  0
 31 32  1  0
 32 33  2  0
 33 34  1  0
 34 35  1  0
 35 36  2  0
  8  3  1  0
 20  9  1  0
 34 24  2  0
 35  5  1  0
 18 13  1  0
 33 26  1  0
  1 37  1  0
  1 38  1  0
  1 39  1  0
  2 40  1  0
  2 41  1  0
  4 42  1  0
  7 43  1  0
 10 44  1  0
 10 45  1  0
 11 46  1  0
 11 47  1  0
 12 48  1  0
 14 49  1  0
 14 50  1  0
 15 51  1  0
 15 52  1  0
 17 53  1  0
 17 54  1  0
 18 55  1  0
 18 56  1  0
 19 57  1  0
 19 58  1  0
 20 59  1  0
 20 60  1  0
 22 61  1  0
 22 62  1  0
 22 63  1  0
 23 64  1  0
 23 65  1  0
 23 66  1  0
 25 67  1  0
 27 68  1  0
 31 69  1  0
 32 70  1  0
M  END
>  <meeko>  (2) 
{"is_sidechain": [false], "free_energy": -7.007, "intermolecular_energy": -9.057, "internal_energy": -0.556}

$$$$
7VON_Alectinib_px8W5bK_out
     RDKit          3D

 70 75  0  0  0  0  0  0  0  0999 V2000
  118.8170  137.9150  217.5040 C   0  0  0  0  0  0  0  0  0  0  0  0
  119.1570  137.7830  216.0230 C   0  0  0  0  0  0  0  0  0  0  0  0
  118.0160  137.2380  215.2280 C   0  0  0  0  0  0  0  0  0  0  0  0
  117.9280  135.8610  215.0350 C   0  0  0  0  0  0  0  0  0  0  0  0
  116.8700  135.3130  214.2910 C   0  0  0  0  0  0  0  0  0  0  0  0
  115.8790  136.1520  213.7270 C   0  0  0  0  0  0  0  0  0  0  0  0
  115.9970  137.5400  213.9410 C   0  0  0  0  0  0  0  0  0  0  0  0
  117.0520  138.0760  214.6820 C   0  0  0  0  0  0  0  0  0  0  0  0
  117.1230  139.4630  214.8640 N   0  0  0  0  0  0  0  0  0  0  0  0
  116.2230  140.0610  215.8600 C   0  0  0  0  0  0  0  0  0  0  0  0
  116.7930  141.3850  216.3730 C   0  0  0  0  0  0  0  0  0  0  0  0
  117.1190  142.3300  215.2150 C   0  0  0  0  0  0  0  0  0  0  0  0
  117.7170  143.5620  215.7270 N   0  0  0  0  0  0  0  0  0  0  0  0
  116.6790  144.4910  216.1960 C   0  0  0  0  0  0  0  0  0  0  0  0
  117.3250  145.7720  216.7140 C   0  0  0  0  0  0  0  0  0  0  0  0
  118.1150  146.3800  215.6910 O   0  0  0  0  0  0  0  0  0  0  0  0
  119.1460  145.4960  215.2530 C   0  0  0  0  0  0  0  0  0  0  0  0
  118.5430  144.2090  214.6980 C   0  0  0  0  0  0  0  0  0  0  0  0
  118.0810  141.6460  214.2420 C   0  0  0  0  0  0  0  0  0  0  0  0
  117.5110  140.3190  213.7380 C   0  0  0  0  0  0  0  0  0  0  0  0
  114.6960  135.6030  212.9020 C   0  0  0  0  0  0  0  0  0  0  0  0
  114.7400  136.1970  211.4760 C   0  0  0  0  0  0  0  0  0  0  0  0
  113.3640  135.9870  213.5850 C   0  0  0  0  0  0  0  0  0  0  0  0
  114.7790  134.1020  212.8070 C   0  0  0  0  0  0  0  0  0  0  0  0
  113.8840  133.3060  212.1430 N   0  0  0  0  0  0  0  0  0  0  0  0
  114.2520  131.9840  212.2510 C   0  0  0  0  0  0  0  0  0  0  0  0
  113.6400  130.8360  211.7350 C   0  0  0  0  0  0  0  0  0  0  0  0
  114.2420  129.6040  212.0030 C   0  0  0  0  0  0  0  0  0  0  0  0
  113.6480  128.4070  211.4950 C   0  0  0  0  0  0  0  0  0  0  0  0
  113.1660  127.4360  211.0830 N   0  0  0  0  0  0  0  0  0  0  0  0
  115.4100  129.5270  212.7580 C   0  0  0  0  0  0  0  0  0  0  0  0
  116.0110  130.6840  213.2680 C   0  0  0  0  0  0  0  0  0  0  0  0
  115.4230  131.9410  213.0100 C   0  0  0  0  0  0  0  0  0  0  0  0
  115.7440  133.2870  213.3550 C   0  0  0  0  0  0  0  0  0  0  0  0
  116.8390  133.8300  214.1260 C   0  0  0  0  0  0  0  0  0  0  0  0
  117.7070  133.1210  214.6220 O   0  0  0  0  0  0  0  0  0  0  0  0
  119.6740  137.5823  218.1080 H   0  0  0  0  0  0  0  0  0  0  0  0
  118.5909  138.9662  217.7360 H   0  0  0  0  0  0  0  0  0  0  0  0
  117.9409  137.2917  217.7360 H   0  0  0  0  0  0  0  0  0  0  0  0
  119.4199  138.7762  215.6301 H   0  0  0  0  0  0  0  0  0  0  0  0
  119.9983  137.0803  215.9312 H   0  0  0  0  0  0  0  0  0  0  0  0
  118.6920  135.1986  215.4681 H   0  0  0  0  0  0  0  0  0  0  0  0
  115.2412  138.2160  213.5148 H   0  0  0  0  0  0  0  0  0  0  0  0
  115.2421  140.2446  215.3972 H   0  0  0  0  0  0  0  0  0  0  0  0
  116.1195  139.3670  216.7071 H   0  0  0  0  0  0  0  0  0  0  0  0
  116.0525  141.8643  217.0302 H   0  0  0  0  0  0  0  0  0  0  0  0
  117.7213  141.1753  216.9246 H   0  0  0  0  0  0  0  0  0  0  0  0
  116.1889  142.5806  214.6838 H   0  0  0  0  0  0  0  0  0  0  0  0
  116.0036  144.7342  215.3626 H   0  0  0  0  0  0  0  0  0  0  0  0
  116.1098  144.0176  217.0096 H   0  0  0  0  0  0  0  0  0  0  0  0
  116.5381  146.4730  217.0291 H   0  0  0  0  0  0  0  0  0  0  0  0
  117.9743  145.5247  217.5668 H   0  0  0  0  0  0  0  0  0  0  0  0
  119.7358  145.9887  214.4660 H   0  0  0  0  0  0  0  0  0  0  0  0
  119.7906  145.2478  216.1091 H   0  0  0  0  0  0  0  0  0  0  0  0
  117.9185  144.4456  213.8239 H   0  0  0  0  0  0  0  0  0  0  0  0
  119.3533  143.5269  214.4009 H   0  0  0  0  0  0  0  0  0  0  0  0
  118.2547  142.3108  213.3830 H   0  0  0  0  0  0  0  0  0  0  0  0
  119.0230  141.4406  214.7717 H   0  0  0  0  0  0  0  0  0  0  0  0
  116.6271  140.5188  213.1144 H   0  0  0  0  0  0  0  0  0  0  0  0
  118.2831  139.8022  213.1492 H   0  0  0  0  0  0  0  0  0  0  0  0
  114.8211  137.2923  211.5374 H   0  0  0  0  0  0  0  0  0  0  0  0
  115.6108  135.7944  210.9378 H   0  0  0  0  0  0  0  0  0  0  0  0
  113.8194  135.9271  210.9378 H   0  0  0  0  0  0  0  0  0  0  0  0
  113.4884  135.9511  214.6774 H   0  0  0  0  0  0  0  0  0  0  0  0
  113.0765  137.0046  213.2819 H   0  0  0  0  0  0  0  0  0  0  0  0
  112.5789  135.2786  213.2819 H   0  0  0  0  0  0  0  0  0  0  0  0
  113.0690  133.6370  211.6430 H   0  0  0  0  0  0  0  0  0  0  0  0
  112.7175  130.9014  211.1394 H   0  0  0  0  0  0  0  0  0  0  0  0
  115.8656  128.5455  212.9558 H   0  0  0  0  0  0  0  0  0  0  0  0
  116.9328  130.6142  213.8642 H   0  0  0  0  0  0  0  0  0  0  0  0
  1  2  1  0
  2  3  1  0
  3  4  2  0
  4  5  1  0
  5  6  2  0
  6  7  1  0
  7  8  2  0
  8  9  1  0
  9 10  1  0
 10 11  1  0
 11 12  1  0
 12 13  1  0
 13 14  1  0
 14 15  1  0
 15 16  1  0
 16 17  1  0
 17 18  1  0
 12 19  1  0
 19 20  1  0
  6 21  1  0
 21 22  1  0
 21 23  1  0
 21 24  1  0
 24 25  1  0
 25 26  1  0
 26 27  2  0
 27 28  1  0
 28 29  1  0
 29 30  3  0
 28 31  2  0
 31 32  1  0
 32 33  2  0
 33 34  1  0
 34 35  1  0
 35 36  2  0
  8  3  1  0
 20  9  1  0
 34 24  2  0
 35  5  1  0
 18 13  1  0
 33 26  1  0
  1 37  1  0
  1 38  1  0
  1 39  1  0
  2 40  1  0
  2 41  1  0
  4 42  1  0
  7 43  1  0
 10 44  1  0
 10 45  1  0
 11 46  1  0
 11 47  1  0
 12 48  1  0
 14 49  1  0
 14 50  1  0
 15 51  1  0
 15 52  1  0
 17 53  1  0
 17 54  1  0
 18 55  1  0
 18 56  1  0
 19 57  1  0
 19 58  1  0
 20 59  1  0
 20 60  1  0
 22 61  1  0
 22 62  1  0
 22 63  1  0
 23 64  1  0
 23 65  1  0
 23 66  1  0
 25 67  1  0
 27 68  1  0
 31 69  1  0
 32 70  1  0
M  END
>  <meeko>  (3) 
{"is_sidechain": [false], "free_energy": -6.879, "intermolecular_energy": -8.531, "internal_energy": -0.924}

$$$$
7VON_Alectinib_px8W5bK_out
     RDKit          3D

 70 75  0  0  0  0  0  0  0  0999 V2000
  115.1680  142.9430  212.2560 C   0  0  0  0  0  0  0  0  0  0  0  0
  114.7640  142.6240  213.6910 C   0  0  0  0  0  0  0  0  0  0  0  0
  115.4730  141.4230  214.2240 C   0  0  0  0  0  0  0  0  0  0  0  0
  115.1140  140.1630  213.7510 C   0  0  0  0  0  0  0  0  0  0  0  0
  115.7580  139.0110  214.2300 C   0  0  0  0  0  0  0  0  0  0  0  0
  116.7830  139.1140  215.2020 C   0  0  0  0  0  0  0  0  0  0  0  0
  117.1240  140.4030  215.6600 C   0  0  0  0  0  0  0  0  0  0  0  0
  116.4770  141.5430  215.1770 C   0  0  0  0  0  0  0  0  0  0  0  0
  116.8530  142.7990  215.6670 N   0  0  0  0  0  0  0  0  0  0  0  0
  118.0470  143.4250  215.0800 C   0  0  0  0  0  0  0  0  0  0  0  0
  117.9920  144.9450  215.2420 C   0  0  0  0  0  0  0  0  0  0  0  0
  117.7690  145.3360  216.7040 C   0  0  0  0  0  0  0  0  0  0  0  0
  117.6600  146.7880  216.8220 N   0  0  0  0  0  0  0  0  0  0  0  0
  116.2670  147.1900  217.0670 C   0  0  0  0  0  0  0  0  0  0  0  0
  116.1770  148.7100  217.1750 C   0  0  0  0  0  0  0  0  0  0  0  0
  116.6710  149.3230  215.9820 O   0  0  0  0  0  0  0  0  0  0  0  0
  118.0340  148.9640  215.7550 C   0  0  0  0  0  0  0  0  0  0  0  0
  118.1680  147.4500  215.6130 C   0  0  0  0  0  0  0  0  0  0  0  0
  116.4950  144.6710  217.2300 C   0  0  0  0  0  0  0  0  0  0  0  0
  116.5500  143.1520  217.0580 C   0  0  0  0  0  0  0  0  0  0  0  0
  117.5240  137.8820  215.7630 C   0  0  0  0  0  0  0  0  0  0  0  0
  117.3110  137.8020  217.2920 C   0  0  0  0  0  0  0  0  0  0  0  0
  119.0330  137.9990  215.4530 C   0  0  0  0  0  0  0  0  0  0  0  0
  116.9920  136.6220  215.1300 C   0  0  0  0  0  0  0  0  0  0  0  0
  117.4350  135.3560  215.4100 N   0  0  0  0  0  0  0  0  0  0  0  0
  116.7400  134.4340  214.6610 C   0  0  0  0  0  0  0  0  0  0  0  0
  116.8540  133.0400  214.6220 C   0  0  0  0  0  0  0  0  0  0  0  0
  116.0060  132.3440  213.7550 C   0  0  0  0  0  0  0  0  0  0  0  0
  116.0910  130.9190  213.6840 C   0  0  0  0  0  0  0  0  0  0  0  0
  116.1600  129.7620  213.6260 N   0  0  0  0  0  0  0  0  0  0  0  0
  115.0830  133.0200  212.9610 C   0  0  0  0  0  0  0  0  0  0  0  0
  114.9800  134.4150  213.0120 C   0  0  0  0  0  0  0  0  0  0  0  0
  115.8240  135.1410  213.8790 C   0  0  0  0  0  0  0  0  0  0  0  0
  115.9960  136.5240  214.1860 C   0  0  0  0  0  0  0  0  0  0  0  0
  115.3210  137.6960  213.6780 C   0  0  0  0  0  0  0  0  0  0  0  0
  114.4330  137.6280  212.8370 O   0  0  0  0  0  0  0  0  0  0  0  0
  116.0313  143.6247  212.2610 H   0  0  0  0  0  0  0  0  0  0  0  0
  115.4387  142.0123  211.7358 H   0  0  0  0  0  0  0  0  0  0  0  0
  114.3255  143.4221  211.7358 H   0  0  0  0  0  0  0  0  0  0  0  0
  115.0048  143.4885  214.3271 H   0  0  0  0  0  0  0  0  0  0  0  0
  113.6852  142.4093  213.6978 H   0  0  0  0  0  0  0  0  0  0  0  0
  114.3194  140.0697  212.9960 H   0  0  0  0  0  0  0  0  0  0  0  0
  117.9170  140.5135  216.4143 H   0  0  0  0  0  0  0  0  0  0  0  0
  118.9438  143.0395  215.5871 H   0  0  0  0  0  0  0  0  0  0  0  0
  118.0833  143.1835  214.0075 H   0  0  0  0  0  0  0  0  0  0  0  0
  118.9421  145.3777  214.8954 H   0  0  0  0  0  0  0  0  0  0  0  0
  117.1514  145.3294  214.6457 H   0  0  0  0  0  0  0  0  0  0  0  0
  118.6264  144.9939  217.3022 H   0  0  0  0  0  0  0  0  0  0  0  0
  115.6360  146.8454  216.2345 H   0  0  0  0  0  0  0  0  0  0  0  0
  115.9196  146.7386  218.0080 H   0  0  0  0  0  0  0  0  0  0  0  0
  115.1269  149.0015  217.3245 H   0  0  0  0  0  0  0  0  0  0  0  0
  116.7864  149.0445  218.0275 H   0  0  0  0  0  0  0  0  0  0  0  0
  118.3875  149.4474  214.8323 H   0  0  0  0  0  0  0  0  0  0  0  0
  118.6386  149.2974  216.6114 H   0  0  0  0  0  0  0  0  0  0  0  0
  117.5881  147.1126  214.7413 H   0  0  0  0  0  0  0  0  0  0  0  0
  119.2284  147.1913  215.4766 H   0  0  0  0  0  0  0  0  0  0  0  0
  116.3825  144.9069  218.2985 H   0  0  0  0  0  0  0  0  0  0  0  0
  115.6397  145.0551  216.6548 H   0  0  0  0  0  0  0  0  0  0  0  0
  117.3328  142.7424  217.7133 H   0  0  0  0  0  0  0  0  0  0  0  0
  115.5699  142.7299  217.3248 H   0  0  0  0  0  0  0  0  0  0  0  0
  118.2208  138.1437  217.8073 H   0  0  0  0  0  0  0  0  0  0  0  0
  116.4645  138.4435  217.5784 H   0  0  0  0  0  0  0  0  0  0  0  0
  117.0961  136.7619  217.5784 H   0  0  0  0  0  0  0  0  0  0  0  0
  119.5986  138.0428  216.3954 H   0  0  0  0  0  0  0  0  0  0  0  0
  119.3568  137.1233  214.8714 H   0  0  0  0  0  0  0  0  0  0  0  0
  119.2180  138.9142  214.8714 H   0  0  0  0  0  0  0  0  0  0  0  0
  118.1650  135.1270  216.0710 H   0  0  0  0  0  0  0  0  0  0  0  0
  117.5847  132.5105  215.2510 H   0  0  0  0  0  0  0  0  0  0  0  0
  114.4271  132.4509  212.2857 H   0  0  0  0  0  0  0  0  0  0  0  0
  114.2476  134.9407  212.3817 H   0  0  0  0  0  0  0  0  0  0  0  0
  1  2  1  0
  2  3  1  0
  3  4  2  0
  4  5  1  0
  5  6  2  0
  6  7  1  0
  7  8  2  0
  8  9  1  0
  9 10  1  0
 10 11  1  0
 11 12  1  0
 12 13  1  0
 13 14  1  0
 14 15  1  0
 15 16  1  0
 16 17  1  0
 17 18  1  0
 12 19  1  0
 19 20  1  0
  6 21  1  0
 21 22  1  0
 21 23  1  0
 21 24  1  0
 24 25  1  0
 25 26  1  0
 26 27  2  0
 27 28  1  0
 28 29  1  0
 29 30  3  0
 28 31  2  0
 31 32  1  0
 32 33  2  0
 33 34  1  0
 34 35  1  0
 35 36  2  0
  8  3  1  0
 20  9  1  0
 34 24  2  0
 35  5  1  0
 18 13  1  0
 33 26  1  0
  1 37  1  0
  1 38  1  0
  1 39  1  0
  2 40  1  0
  2 41  1  0
  4 42  1  0
  7 43  1  0
 10 44  1  0
 10 45  1  0
 11 46  1  0
 11 47  1  0
 12 48  1  0
 14 49  1  0
 14 50  1  0
 15 51  1  0
 15 52  1  0
 17 53  1  0
 17 54  1  0
 18 55  1  0
 18 56  1  0
 19 57  1  0
 19 58  1  0
 20 59  1  0
 20 60  1  0
 22 61  1  0
 22 62  1  0
 22 63  1  0
 23 64  1  0
 23 65  1  0
 23 66  1  0
 25 67  1  0
 27 68  1  0
 31 69  1  0
 32 70  1  0
M  END
>  <meeko>  (4) 
{"is_sidechain": [false], "free_energy": -6.551, "intermolecular_energy": -8.057, "internal_energy": -0.993}

$$$$
7VON_Alectinib_px8W5bK_out
     RDKit          3D

 70 75  0  0  0  0  0  0  0  0999 V2000
  118.8040  136.7450  217.3100 C   0  0  0  0  0  0  0  0  0  0  0  0
  118.9840  136.6790  215.7970 C   0  0  0  0  0  0  0  0  0  0  0  0
  117.9230  135.8610  215.1370 C   0  0  0  0  0  0  0  0  0  0  0  0
  118.1180  134.4890  214.9970 C   0  0  0  0  0  0  0  0  0  0  0  0
  117.1420  133.6900  214.3810 C   0  0  0  0  0  0  0  0  0  0  0  0
  115.9460  134.2670  213.8920 C   0  0  0  0  0  0  0  0  0  0  0  0
  115.7780  135.6570  214.0490 C   0  0  0  0  0  0  0  0  0  0  0  0
  116.7540  136.4450  214.6630 C   0  0  0  0  0  0  0  0  0  0  0  0
  116.5380  137.8220  214.7930 N   0  0  0  0  0  0  0  0  0  0  0  0
  115.4980  138.2580  215.7360 C   0  0  0  0  0  0  0  0  0  0  0  0
  115.7710  139.6850  216.2140 C   0  0  0  0  0  0  0  0  0  0  0  0
  115.9440  140.6390  215.0300 C   0  0  0  0  0  0  0  0  0  0  0  0
  116.2620  141.9820  215.5130 N   0  0  0  0  0  0  0  0  0  0  0  0
  117.6760  142.3020  215.2700 C   0  0  0  0  0  0  0  0  0  0  0  0
  117.9880  143.7020  215.7920 C   0  0  0  0  0  0  0  0  0  0  0  0
  117.6880  143.7910  217.1860 O   0  0  0  0  0  0  0  0  0  0  0  0
  116.3090  143.5130  217.4270 C   0  0  0  0  0  0  0  0  0  0  0  0
  115.9580  142.1080  216.9450 C   0  0  0  0  0  0  0  0  0  0  0  0
  117.0600  140.1330  214.1150 C   0  0  0  0  0  0  0  0  0  0  0  0
  116.7880  138.7020  213.6470 C   0  0  0  0  0  0  0  0  0  0  0  0
  114.8410  133.4360  213.2060 C   0  0  0  0  0  0  0  0  0  0  0  0
  114.6260  133.9490  211.7650 C   0  0  0  0  0  0  0  0  0  0  0  0
  113.5250  133.5620  214.0060 C   0  0  0  0  0  0  0  0  0  0  0  0
  115.2400  131.9840  213.1520 C   0  0  0  0  0  0  0  0  0  0  0  0
  114.4820  130.9810  212.6060 N   0  0  0  0  0  0  0  0  0  0  0  0
  115.1370  129.7760  212.7190 C   0  0  0  0  0  0  0  0  0  0  0  0
  114.7450  128.4980  212.3030 C   0  0  0  0  0  0  0  0  0  0  0  0
  115.6230  127.4390  212.5500 C   0  0  0  0  0  0  0  0  0  0  0  0
  115.2600  126.1170  212.1420 C   0  0  0  0  0  0  0  0  0  0  0  0
  114.9650  125.0450  211.8110 N   0  0  0  0  0  0  0  0  0  0  0  0
  116.8420  127.6530  213.1870 C   0  0  0  0  0  0  0  0  0  0  0  0
  117.2210  128.9360  213.5960 C   0  0  0  0  0  0  0  0  0  0  0  0
  116.3540  130.0230  213.3590 C   0  0  0  0  0  0  0  0  0  0  0  0
  116.4040  131.4240  213.6270 C   0  0  0  0  0  0  0  0  0  0  0  0
  117.4200  132.2270  214.2670 C   0  0  0  0  0  0  0  0  0  0  0  0
  118.4620  131.7470  214.6970 O   0  0  0  0  0  0  0  0  0  0  0  0
  119.7267  136.4067  217.8041 H   0  0  0  0  0  0  0  0  0  0  0  0
  118.5869  137.7812  217.6086 H   0  0  0  0  0  0  0  0  0  0  0  0
  117.9686  136.0947  217.6086 H   0  0  0  0  0  0  0  0  0  0  0  0
  118.9472  137.7007  215.3911 H   0  0  0  0  0  0  0  0  0  0  0  0
  119.9538  136.2015  215.5932 H   0  0  0  0  0  0  0  0  0  0  0  0
  119.0437  134.0281  215.3719 H   0  0  0  0  0  0  0  0  0  0  0  0
  114.8573  136.1323  213.6796 H   0  0  0  0  0  0  0  0  0  0  0  0
  114.5190  138.2252  215.2355 H   0  0  0  0  0  0  0  0  0  0  0  0
  115.5025  137.5849  216.6060 H   0  0  0  0  0  0  0  0  0  0  0  0
  114.9253  140.0257  216.8293 H   0  0  0  0  0  0  0  0  0  0  0  0
  116.7011  139.6848  216.8013 H   0  0  0  0  0  0  0  0  0  0  0  0
  115.0040  140.6794  214.4601 H   0  0  0  0  0  0  0  0  0  0  0  0
  118.3105  141.5690  215.7897 H   0  0  0  0  0  0  0  0  0  0  0  0
  117.8754  142.2654  214.1888 H   0  0  0  0  0  0  0  0  0  0  0  0
  119.0554  143.9176  215.6363 H   0  0  0  0  0  0  0  0  0  0  0  0
  117.3720  144.4321  215.2467 H   0  0  0  0  0  0  0  0  0  0  0  0
  116.1073  143.5871  218.5058 H   0  0  0  0  0  0  0  0  0  0  0  0
  115.6963  144.2426  216.8772 H   0  0  0  0  0  0  0  0  0  0  0  0
  116.5473  141.3705  217.5096 H   0  0  0  0  0  0  0  0  0  0  0  0
  114.8850  141.9267  217.1056 H   0  0  0  0  0  0  0  0  0  0  0  0
  117.1287  140.7907  213.2360 H   0  0  0  0  0  0  0  0  0  0  0  0
  118.0034  140.1403  214.6807 H   0  0  0  0  0  0  0  0  0  0  0  0
  115.9062  138.6983  212.9895 H   0  0  0  0  0  0  0  0  0  0  0  0
  117.6703  138.3334  213.1032 H   0  0  0  0  0  0  0  0  0  0  0  0
  114.2010  134.9631  211.7964 H   0  0  0  0  0  0  0  0  0  0  0  0
  115.5903  133.9718  211.2362 H   0  0  0  0  0  0  0  0  0  0  0  0
  113.9336  133.2775  211.2362 H   0  0  0  0  0  0  0  0  0  0  0  0
  113.7472  133.5407  215.0831 H   0  0  0  0  0  0  0  0  0  0  0  0
  113.0311  134.5115  213.7522 H   0  0  0  0  0  0  0  0  0  0  0  0
  112.8599  132.7234  213.7522 H   0  0  0  0  0  0  0  0  0  0  0  0
  113.5730  131.1040  212.1790 H   0  0  0  0  0  0  0  0  0  0  0  0
  113.7808  128.3333  211.7999 H   0  0  0  0  0  0  0  0  0  0  0  0
  117.5155  126.8030  213.3710 H   0  0  0  0  0  0  0  0  0  0  0  0
  118.1867  129.0957  214.0980 H   0  0  0  0  0  0  0  0  0  0  0  0
  1  2  1  0
  2  3  1  0
  3  4  2  0
  4  5  1  0
  5  6  2  0
  6  7  1  0
  7  8  2  0
  8  9  1  0
  9 10  1  0
 10 11  1  0
 11 12  1  0
 12 13  1  0
 13 14  1  0
 14 15  1  0
 15 16  1  0
 16 17  1  0
 17 18  1  0
 12 19  1  0
 19 20  1  0
  6 21  1  0
 21 22  1  0
 21 23  1  0
 21 24  1  0
 24 25  1  0
 25 26  1  0
 26 27  2  0
 27 28  1  0
 28 29  1  0
 29 30  3  0
 28 31  2  0
 31 32  1  0
 32 33  2  0
 33 34  1  0
 34 35  1  0
 35 36  2  0
  8  3  1  0
 20  9  1  0
 34 24  2  0
 35  5  1  0
 18 13  1  0
 33 26  1  0
  1 37  1  0
  1 38  1  0
  1 39  1  0
  2 40  1  0
  2 41  1  0
  4 42  1  0
  7 43  1  0
 10 44  1  0
 10 45  1  0
 11 46  1  0
 11 47  1  0
 12 48  1  0
 14 49  1  0
 14 50  1  0
 15 51  1  0
 15 52  1  0
 17 53  1  0
 17 54  1  0
 18 55  1  0
 18 56  1  0
 19 57  1  0
 19 58  1  0
 20 59  1  0
 20 60  1  0
 22 61  1  0
 22 62  1  0
 22 63  1  0
 23 64  1  0
 23 65  1  0
 23 66  1  0
 25 67  1  0
 27 68  1  0
 31 69  1  0
 32 70  1  0
M  END
>  <meeko>  (5) 
{"is_sidechain": [false], "free_energy": -6.452, "intermolecular_energy": -7.918, "internal_energy": -1.01}

$$$$
7VON_Alectinib_px8W5bK_out
     RDKit          3D

 70 75  0  0  0  0  0  0  0  0999 V2000
  113.2200  133.6790  212.5650 C   0  0  0  0  0  0  0  0  0  0  0  0
  114.6940  133.7380  212.1790 C   0  0  0  0  0  0  0  0  0  0  0  0
  115.5090  134.4960  213.1750 C   0  0  0  0  0  0  0  0  0  0  0  0
  115.4480  135.8880  213.1760 C   0  0  0  0  0  0  0  0  0  0  0  0
  116.2010  136.6330  214.0970 C   0  0  0  0  0  0  0  0  0  0  0  0
  117.0340  135.9810  215.0380 C   0  0  0  0  0  0  0  0  0  0  0  0
  117.0730  134.5720  215.0120 C   0  0  0  0  0  0  0  0  0  0  0  0
  116.3200  133.8390  214.0920 C   0  0  0  0  0  0  0  0  0  0  0  0
  116.3960  132.4410  214.1080 N   0  0  0  0  0  0  0  0  0  0  0  0
  115.4040  131.7180  214.9160 C   0  0  0  0  0  0  0  0  0  0  0  0
  115.2180  130.2940  214.3900 C   0  0  0  0  0  0  0  0  0  0  0  0
  116.5580  129.5620  214.2930 C   0  0  0  0  0  0  0  0  0  0  0  0
  116.3590  128.2270  213.7330 N   0  0  0  0  0  0  0  0  0  0  0  0
  117.5580  127.7800  213.0110 C   0  0  0  0  0  0  0  0  0  0  0  0
  117.3230  126.3900  212.4250 C   0  0  0  0  0  0  0  0  0  0  0  0
  116.1910  126.4030  211.5530 O   0  0  0  0  0  0  0  0  0  0  0  0
  115.0150  126.8060  212.2550 C   0  0  0  0  0  0  0  0  0  0  0  0
  115.1950  128.2050  212.8360 C   0  0  0  0  0  0  0  0  0  0  0  0
  117.5210  130.3610  213.4140 C   0  0  0  0  0  0  0  0  0  0  0  0
  117.6990  131.7880  213.9380 C   0  0  0  0  0  0  0  0  0  0  0  0
  117.8820  136.7500  216.0720 C   0  0  0  0  0  0  0  0  0  0  0  0
  119.3780  136.4240  215.8610 C   0  0  0  0  0  0  0  0  0  0  0  0
  117.4560  136.3410  217.5000 C   0  0  0  0  0  0  0  0  0  0  0  0
  117.6800  138.2350  215.9110 C   0  0  0  0  0  0  0  0  0  0  0  0
  118.2890  139.1980  216.6720 N   0  0  0  0  0  0  0  0  0  0  0  0
  117.8880  140.4490  216.2640 C   0  0  0  0  0  0  0  0  0  0  0  0
  118.2510  141.7110  216.7490 C   0  0  0  0  0  0  0  0  0  0  0  0
  117.6800  142.8300  216.1350 C   0  0  0  0  0  0  0  0  0  0  0  0
  118.0230  144.1370  216.6010 C   0  0  0  0  0  0  0  0  0  0  0  0
  118.3020  145.1980  216.9790 N   0  0  0  0  0  0  0  0  0  0  0  0
  116.7840  142.6880  215.0790 C   0  0  0  0  0  0  0  0  0  0  0  0
  116.4310  141.4190  214.6040 C   0  0  0  0  0  0  0  0  0  0  0  0
  116.9930  140.2740  215.2060 C   0  0  0  0  0  0  0  0  0  0  0  0
  116.8710  138.8680  214.9940 C   0  0  0  0  0  0  0  0  0  0  0  0
  116.0860  138.1200  214.0400 C   0  0  0  0  0  0  0  0  0  0  0  0
  115.3590  138.6650  213.2180 O   0  0  0  0  0  0  0  0  0  0  0  0
  113.1279  133.6753  213.6611 H   0  0  0  0  0  0  0  0  0  0  0  0
  112.6985  134.5570  212.1562 H   0  0  0  0  0  0  0  0  0  0  0  0
  112.7703  132.7621  212.1562 H   0  0  0  0  0  0  0  0  0  0  0  0
  115.0835  132.7115  212.1105 H   0  0  0  0  0  0  0  0  0  0  0  0
  114.7693  134.2605  211.2139 H   0  0  0  0  0  0  0  0  0  0  0  0
  114.8051  136.4069  212.4498 H   0  0  0  0  0  0  0  0  0  0  0  0
  117.7105  134.0382  215.7321 H   0  0  0  0  0  0  0  0  0  0  0  0
  115.7488  131.6760  215.9597 H   0  0  0  0  0  0  0  0  0  0  0  0
  114.4419  132.2477  214.8549 H   0  0  0  0  0  0  0  0  0  0  0  0
  114.5561  129.7423  215.0738 H   0  0  0  0  0  0  0  0  0  0  0  0
  114.7766  130.3486  213.3839 H   0  0  0  0  0  0  0  0  0  0  0  0
  116.9885  129.4636  215.3005 H   0  0  0  0  0  0  0  0  0  0  0  0
  117.7784  128.4865  212.1972 H   0  0  0  0  0  0  0  0  0  0  0  0
  118.4074  127.7402  213.7088 H   0  0  0  0  0  0  0  0  0  0  0  0
  118.2135  126.0799  211.8586 H   0  0  0  0  0  0  0  0  0  0  0  0
  117.1331  125.6834  213.2464 H   0  0  0  0  0  0  0  0  0  0  0  0
  114.1617  126.8090  211.5608 H   0  0  0  0  0  0  0  0  0  0  0  0
  114.8309  126.0992  213.0776 H   0  0  0  0  0  0  0  0  0  0  0  0
  115.3516  128.9228  212.0173 H   0  0  0  0  0  0  0  0  0  0  0  0
  114.2942  128.4804  213.4041 H   0  0  0  0  0  0  0  0  0  0  0  0
  118.4992  129.8580  213.4052 H   0  0  0  0  0  0  0  0  0  0  0  0
  117.1013  130.4140  212.3986 H   0  0  0  0  0  0  0  0  0  0  0  0
  118.2164  131.7551  214.9082 H   0  0  0  0  0  0  0  0  0  0  0  0
  118.2916  132.3620  213.2105 H   0  0  0  0  0  0  0  0  0  0  0  0
  119.8712  136.3165  216.8383 H   0  0  0  0  0  0  0  0  0  0  0  0
  119.4725  135.4842  215.2972 H   0  0  0  0  0  0  0  0  0  0  0  0
  119.8550  137.2393  215.2972 H   0  0  0  0  0  0  0  0  0  0  0  0
  118.0462  136.9077  218.2352 H   0  0  0  0  0  0  0  0  0  0  0  0
  116.3872  136.5600  217.6407 H   0  0  0  0  0  0  0  0  0  0  0  0
  117.6313  135.2642  217.6407 H   0  0  0  0  0  0  0  0  0  0  0  0
  118.9410  139.0190  217.4250 H   0  0  0  0  0  0  0  0  0  0  0  0
  118.9600  141.8185  217.5831 H   0  0  0  0  0  0  0  0  0  0  0  0
  116.3481  143.5835  214.6121 H   0  0  0  0  0  0  0  0  0  0  0  0
  115.7221  141.3161  213.7692 H   0  0  0  0  0  0  0  0  0  0  0  0
  1  2  1  0
  2  3  1  0
  3  4  2  0
  4  5  1  0
  5  6  2  0
  6  7  1  0
  7  8  2  0
  8  9  1  0
  9 10  1  0
 10 11  1  0
 11 12  1  0
 12 13  1  0
 13 14  1  0
 14 15  1  0
 15 16  1  0
 16 17  1  0
 17 18  1  0
 12 19  1  0
 19 20  1  0
  6 21  1  0
 21 22  1  0
 21 23  1  0
 21 24  1  0
 24 25  1  0
 25 26  1  0
 26 27  2  0
 27 28  1  0
 28 29  1  0
 29 30  3  0
 28 31  2  0
 31 32  1  0
 32 33  2  0
 33 34  1  0
 34 35  1  0
 35 36  2  0
  8  3  1  0
 20  9  1  0
 34 24  2  0
 35  5  1  0
 18 13  1  0
 33 26  1  0
  1 37  1  0
  1 38  1  0
  1 39  1  0
  2 40  1  0
  2 41  1  0
  4 42  1  0
  7 43  1  0
 10 44  1  0
 10 45  1  0
 11 46  1  0
 11 47  1  0
 12 48  1  0
 14 49  1  0
 14 50  1  0
 15 51  1  0
 15 52  1  0
 17 53  1  0
 17 54  1  0
 18 55  1  0
 18 56  1  0
 19 57  1  0
 19 58  1  0
 20 59  1  0
 20 60  1  0
 22 61  1  0
 22 62  1  0
 22 63  1  0
 23 64  1  0
 23 65  1  0
 23 66  1  0
 25 67  1  0
 27 68  1  0
 31 69  1  0
 32 70  1  0
M  END
>  <meeko>  (6) 
{"is_sidechain": [false], "free_energy": -6.409, "intermolecular_energy": -7.951, "internal_energy": -0.924}

$$$$
7VON_Alectinib_px8W5bK_out
     RDKit          3D

 70 75  0  0  0  0  0  0  0  0999 V2000
  119.6240  133.2090  214.8730 C   0  0  0  0  0  0  0  0  0  0  0  0
  118.3190  133.9400  215.1660 C   0  0  0  0  0  0  0  0  0  0  0  0
  117.1910  133.4440  214.3210 C   0  0  0  0  0  0  0  0  0  0  0  0
  117.0370  132.0710  214.1420 C   0  0  0  0  0  0  0  0  0  0  0  0
  115.9890  131.5690  213.3540 C   0  0  0  0  0  0  0  0  0  0  0  0
  115.0750  132.4510  212.7290 C   0  0  0  0  0  0  0  0  0  0  0  0
  115.2580  133.8340  212.9290 C   0  0  0  0  0  0  0  0  0  0  0  0
  116.3030  134.3250  213.7150 C   0  0  0  0  0  0  0  0  0  0  0  0
  116.4410  135.7080  213.8810 N   0  0  0  0  0  0  0  0  0  0  0  0
  115.5840  136.3580  214.8840 C   0  0  0  0  0  0  0  0  0  0  0  0
  116.2230  137.6590  215.3740 C   0  0  0  0  0  0  0  0  0  0  0  0
  116.5750  138.5760  214.2010 C   0  0  0  0  0  0  0  0  0  0  0  0
  117.2370  139.7830  214.6920 N   0  0  0  0  0  0  0  0  0  0  0  0
  116.4690  140.3920  215.7870 C   0  0  0  0  0  0  0  0  0  0  0  0
  117.1720  141.6550  216.2750 C   0  0  0  0  0  0  0  0  0  0  0  0
  117.3290  142.5830  215.2000 O   0  0  0  0  0  0  0  0  0  0  0  0
  118.1020  142.0110  214.1450 C   0  0  0  0  0  0  0  0  0  0  0  0
  117.4200  140.7570  213.6060 C   0  0  0  0  0  0  0  0  0  0  0  0
  117.4890  137.8380  213.2220 C   0  0  0  0  0  0  0  0  0  0  0  0
  116.8510  136.5340  212.7410 C   0  0  0  0  0  0  0  0  0  0  0  0
  113.9060  131.9540  211.8520 C   0  0  0  0  0  0  0  0  0  0  0  0
  114.0540  132.5200  210.4220 C   0  0  0  0  0  0  0  0  0  0  0  0
  112.5650  132.4200  212.4620 C   0  0  0  0  0  0  0  0  0  0  0  0
  113.9120  130.4490  211.7820 C   0  0  0  0  0  0  0  0  0  0  0  0
  113.0080  129.6910  211.0850 N   0  0  0  0  0  0  0  0  0  0  0  0
  113.2970  128.3540  211.2290 C   0  0  0  0  0  0  0  0  0  0  0  0
  112.6490  127.2320  210.6990 C   0  0  0  0  0  0  0  0  0  0  0  0
  113.1680  125.9740  211.0150 C   0  0  0  0  0  0  0  0  0  0  0  0
  112.5360  124.8020  210.4940 C   0  0  0  0  0  0  0  0  0  0  0  0
  112.0220  123.8520  210.0710 N   0  0  0  0  0  0  0  0  0  0  0  0
  114.2910  125.8460  211.8290 C   0  0  0  0  0  0  0  0  0  0  0  0
  114.9290  126.9770  212.3520 C   0  0  0  0  0  0  0  0  0  0  0  0
  114.4250  128.2590  212.0480 C   0  0  0  0  0  0  0  0  0  0  0  0
  114.8020  129.5920  212.3900 C   0  0  0  0  0  0  0  0  0  0  0  0
  115.8850  130.0870  213.2080 C   0  0  0  0  0  0  0  0  0  0  0  0
  116.6860  129.3410  213.7570 O   0  0  0  0  0  0  0  0  0  0  0  0
  120.1119  132.9357  215.8203 H   0  0  0  0  0  0  0  0  0  0  0  0
  119.4120  132.2983  214.2936 H   0  0  0  0  0  0  0  0  0  0  0  0
  120.2899  133.8654  214.2936 H   0  0  0  0  0  0  0  0  0  0  0  0
  118.0601  133.7916  216.2247 H   0  0  0  0  0  0  0  0  0  0  0  0
  118.4700  135.0050  214.9356 H   0  0  0  0  0  0  0  0  0  0  0  0
  117.7414  131.3753  214.6214 H   0  0  0  0  0  0  0  0  0  0  0  0
  114.5624  134.5425  212.4556 H   0  0  0  0  0  0  0  0  0  0  0  0
  114.6060  136.5826  214.4334 H   0  0  0  0  0  0  0  0  0  0  0  0
  115.4605  135.6783  215.7400 H   0  0  0  0  0  0  0  0  0  0  0  0
  115.5158  138.1791  216.0369 H   0  0  0  0  0  0  0  0  0  0  0  0
  117.1489  137.4116  215.9140 H   0  0  0  0  0  0  0  0  0  0  0  0
  115.6503  138.8647  213.6799 H   0  0  0  0  0  0  0  0  0  0  0  0
  115.4625  140.6510  215.4265 H   0  0  0  0  0  0  0  0  0  0  0  0
  116.3935  139.6756  216.6183 H   0  0  0  0  0  0  0  0  0  0  0  0
  116.5715  142.1199  217.0707 H   0  0  0  0  0  0  0  0  0  0  0  0
  118.1656  141.3843  216.6615 H   0  0  0  0  0  0  0  0  0  0  0  0
  118.2055  142.7451  213.3324 H   0  0  0  0  0  0  0  0  0  0  0  0
  119.0932  141.7381  214.5362 H   0  0  0  0  0  0  0  0  0  0  0  0
  116.4388  141.0262  213.1878 H   0  0  0  0  0  0  0  0  0  0  0  0
  118.0483  140.3112  212.8208 H   0  0  0  0  0  0  0  0  0  0  0  0
  117.6803  138.4850  212.3532 H   0  0  0  0  0  0  0  0  0  0  0  0
  118.4282  137.5944  213.7403 H   0  0  0  0  0  0  0  0  0  0  0  0
  115.9680  136.7682  212.1283 H   0  0  0  0  0  0  0  0  0  0  0  0
  117.5898  135.9762  212.1468 H   0  0  0  0  0  0  0  0  0  0  0  0
  114.3320  133.5830  210.4753 H   0  0  0  0  0  0  0  0  0  0  0  0
  114.8366  131.9628  209.8863 H   0  0  0  0  0  0  0  0  0  0  0  0
  113.0988  132.4172  209.8863 H   0  0  0  0  0  0  0  0  0  0  0  0
  112.6335  132.3962  213.5596 H   0  0  0  0  0  0  0  0  0  0  0  0
  112.3482  133.4462  212.1303 H   0  0  0  0  0  0  0  0  0  0  0  0
  111.7586  131.7494  212.1303 H   0  0  0  0  0  0  0  0  0  0  0  0
  112.2380  130.0580  210.5400 H   0  0  0  0  0  0  0  0  0  0  0  0
  111.7624  127.3372  210.0564 H   0  0  0  0  0  0  0  0  0  0  0  0
  114.6811  124.8446  212.0636 H   0  0  0  0  0  0  0  0  0  0  0  0
  115.8153  126.8670  212.9942 H   0  0  0  0  0  0  0  0  0  0  0  0
  1  2  1  0
  2  3  1  0
  3  4  2  0
  4  5  1  0
  5  6  2  0
  6  7  1  0
  7  8  2  0
  8  9  1  0
  9 10  1  0
 10 11  1  0
 11 12  1  0
 12 13  1  0
 13 14  1  0
 14 15  1  0
 15 16  1  0
 16 17  1  0
 17 18  1  0
 12 19  1  0
 19 20  1  0
  6 21  1  0
 21 22  1  0
 21 23  1  0
 21 24  1  0
 24 25  1  0
 25 26  1  0
 26 27  2  0
 27 28  1  0
 28 29  1  0
 29 30  3  0
 28 31  2  0
 31 32  1  0
 32 33  2  0
 33 34  1  0
 34 35  1  0
 35 36  2  0
  8  3  1  0
 20  9  1  0
 34 24  2  0
 35  5  1  0
 18 13  1  0
 33 26  1  0
  1 37  1  0
  1 38  1  0
  1 39  1  0
  2 40  1  0
  2 41  1  0
  4 42  1  0
  7 43  1  0
 10 44  1  0
 10 45  1  0
 11 46  1  0
 11 47  1  0
 12 48  1  0
 14 49  1  0
 14 50  1  0
 15 51  1  0
 15 52  1  0
 17 53  1  0
 17 54  1  0
 18 55  1  0
 18 56  1  0
 19 57  1  0
 19 58  1  0
 20 59  1  0
 20 60  1  0
 22 61  1  0
 22 62  1  0
 22 63  1  0
 23 64  1  0
 23 65  1  0
 23 66  1  0
 25 67  1  0
 27 68  1  0
 31 69  1  0
 32 70  1  0
M  END
>  <meeko>  (7) 
{"is_sidechain": [false], "free_energy": -6.256, "intermolecular_energy": -7.844, "internal_energy": -0.843}

$$$$
7VON_Alectinib_px8W5bK_out
     RDKit          3D

 70 75  0  0  0  0  0  0  0  0999 V2000
  119.4770  134.2610  216.2020 C   0  0  0  0  0  0  0  0  0  0  0  0
  118.4780  135.4140  216.2240 C   0  0  0  0  0  0  0  0  0  0  0  0
  117.4250  135.2690  215.1750 C   0  0  0  0  0  0  0  0  0  0  0  0
  117.0400  133.9910  214.7790 C   0  0  0  0  0  0  0  0  0  0  0  0
  116.0540  133.8170  213.7950 C   0  0  0  0  0  0  0  0  0  0  0  0
  115.4360  134.9400  213.1910 C   0  0  0  0  0  0  0  0  0  0  0  0
  115.8470  136.2200  213.6150 C   0  0  0  0  0  0  0  0  0  0  0  0
  116.8290  136.3830  214.5950 C   0  0  0  0  0  0  0  0  0  0  0  0
  117.2010  137.6760  214.9790 N   0  0  0  0  0  0  0  0  0  0  0  0
  118.4640  138.2050  214.4430 C   0  0  0  0  0  0  0  0  0  0  0  0
  118.4450  139.7340  214.4340 C   0  0  0  0  0  0  0  0  0  0  0  0
  118.1040  140.2900  215.8180 C   0  0  0  0  0  0  0  0  0  0  0  0
  118.0340  141.7490  215.7680 N   0  0  0  0  0  0  0  0  0  0  0  0
  117.0220  142.2560  216.7060 C   0  0  0  0  0  0  0  0  0  0  0  0
  116.9580  143.7780  216.6280 C   0  0  0  0  0  0  0  0  0  0  0  0
  116.6570  144.1950  215.2940 O   0  0  0  0  0  0  0  0  0  0  0  0
  117.6530  143.7340  214.3820 C   0  0  0  0  0  0  0  0  0  0  0  0
  117.7320  142.2110  214.4060 C   0  0  0  0  0  0  0  0  0  0  0  0
  116.7660  139.7170  216.2910 C   0  0  0  0  0  0  0  0  0  0  0  0
  116.7860  138.1870  216.2900 C   0  0  0  0  0  0  0  0  0  0  0  0
  114.3480  134.8070  212.1060 C   0  0  0  0  0  0  0  0  0  0  0  0
  114.8260  135.4930  210.8060 C   0  0  0  0  0  0  0  0  0  0  0  0
  113.0420  135.4710  212.5960 C   0  0  0  0  0  0  0  0  0  0  0  0
  114.0750  133.3530  211.8170 C   0  0  0  0  0  0  0  0  0  0  0  0
  113.1640  132.8910  210.9030 N   0  0  0  0  0  0  0  0  0  0  0  0
  113.1650  131.5150  210.8870 C   0  0  0  0  0  0  0  0  0  0  0  0
  112.4060  130.6260  210.1170 C   0  0  0  0  0  0  0  0  0  0  0  0
  112.6180  129.2580  210.3100 C   0  0  0  0  0  0  0  0  0  0  0  0
  111.8630  128.3160  209.5440 C   0  0  0  0  0  0  0  0  0  0  0  0
  111.2500  127.5510  208.9220 N   0  0  0  0  0  0  0  0  0  0  0  0
  113.5520  128.8020  211.2360 C   0  0  0  0  0  0  0  0  0  0  0  0
  114.3040  129.7030  211.9990 C   0  0  0  0  0  0  0  0  0  0  0  0
  114.1100  131.0890  211.8230 C   0  0  0  0  0  0  0  0  0  0  0  0
  114.6770  132.2630  212.4040 C   0  0  0  0  0  0  0  0  0  0  0  0
  115.6920  132.4190  213.4200 C   0  0  0  0  0  0  0  0  0  0  0  0
  116.2380  131.4610  213.9540 O   0  0  0  0  0  0  0  0  0  0  0  0
  119.7269  133.9726  217.2337 H   0  0  0  0  0  0  0  0  0  0  0  0
  119.0334  133.4014  215.6782 H   0  0  0  0  0  0  0  0  0  0  0  0
  120.3910  134.5777  215.6782 H   0  0  0  0  0  0  0  0  0  0  0  0
  117.9930  135.4436  217.2109 H   0  0  0  0  0  0  0  0  0  0  0  0
  119.0307  136.3432  216.0211 H   0  0  0  0  0  0  0  0  0  0  0  0
  117.5119  133.1111  215.2406 H   0  0  0  0  0  0  0  0  0  0  0  0
  115.3842  137.1102  213.1642 H   0  0  0  0  0  0  0  0  0  0  0  0
  119.2974  137.8573  215.0712 H   0  0  0  0  0  0  0  0  0  0  0  0
  118.5902  137.8453  213.4111 H   0  0  0  0  0  0  0  0  0  0  0  0
  119.4363  140.1036  214.1329 H   0  0  0  0  0  0  0  0  0  0  0  0
  117.6746  140.0691  213.7239 H   0  0  0  0  0  0  0  0  0  0  0  0
  118.8918  139.9966  216.5274 H   0  0  0  0  0  0  0  0  0  0  0  0
  116.0396  141.8358  216.4448 H   0  0  0  0  0  0  0  0  0  0  0  0
  117.2943  141.9569  217.7289 H   0  0  0  0  0  0  0  0  0  0  0  0
  116.1742  144.1434  217.3078 H   0  0  0  0  0  0  0  0  0  0  0  0
  117.9342  144.1923  216.9204 H   0  0  0  0  0  0  0  0  0  0  0  0
  117.3961  144.0676  213.3658 H   0  0  0  0  0  0  0  0  0  0  0  0
  118.6281  144.1466  214.6802 H   0  0  0  0  0  0  0  0  0  0  0  0
  116.7683  141.7903  214.0831 H   0  0  0  0  0  0  0  0  0  0  0  0
  118.5290  141.8781  213.7248 H   0  0  0  0  0  0  0  0  0  0  0  0
  116.5649  140.0722  217.3125 H   0  0  0  0  0  0  0  0  0  0  0  0
  115.9795  140.0548  215.6001 H   0  0  0  0  0  0  0  0  0  0  0  0
  117.4928  137.8344  217.0555 H   0  0  0  0  0  0  0  0  0  0  0  0
  115.7726  137.8194  216.5089 H   0  0  0  0  0  0  0  0  0  0  0  0
  115.4381  136.3714  211.0586 H   0  0  0  0  0  0  0  0  0  0  0  0
  115.4269  134.7844  210.2171 H   0  0  0  0  0  0  0  0  0  0  0  0
  113.9532  135.8114  210.2171 H   0  0  0  0  0  0  0  0  0  0  0  0
  113.0252  135.4795  213.6958 H   0  0  0  0  0  0  0  0  0  0  0  0
  112.9925  136.5037  212.2205 H   0  0  0  0  0  0  0  0  0  0  0  0
  112.1784  134.9025  212.2205 H   0  0  0  0  0  0  0  0  0  0  0  0
  112.5760  133.4730  210.3220 H   0  0  0  0  0  0  0  0  0  0  0  0
  111.6692  130.9909  209.3863 H   0  0  0  0  0  0  0  0  0  0  0  0
  113.7010  127.7204  211.3698 H   0  0  0  0  0  0  0  0  0  0  0  0
  115.0393  129.3336  212.7290 H   0  0  0  0  0  0  0  0  0  0  0  0
  1  2  1  0
  2  3  1  0
  3  4  2  0
  4  5  1  0
  5  6  2  0
  6  7  1  0
  7  8  2  0
  8  9  1  0
  9 10  1  0
 10 11  1  0
 11 12  1  0
 12 13  1  0
 13 14  1  0
 14 15  1  0
 15 16  1  0
 16 17  1  0
 17 18  1  0
 12 19  1  0
 19 20  1  0
  6 21  1  0
 21 22  1  0
 21 23  1  0
 21 24  1  0
 24 25  1  0
 25 26  1  0
 26 27  2  0
 27 28  1  0
 28 29  1  0
 29 30  3  0
 28 31  2  0
 31 32  1  0
 32 33  2  0
 33 34  1  0
 34 35  1  0
 35 36  2  0
  8  3  1  0
 20  9  1  0
 34 24  2  0
 35  5  1  0
 18 13  1  0
 33 26  1  0
  1 37  1  0
  1 38  1  0
  1 39  1  0
  2 40  1  0
  2 41  1  0
  4 42  1  0
  7 43  1  0
 10 44  1  0
 10 45  1  0
 11 46  1  0
 11 47  1  0
 12 48  1  0
 14 49  1  0
 14 50  1  0
 15 51  1  0
 15 52  1  0
 17 53  1  0
 17 54  1  0
 18 55  1  0
 18 56  1  0
 19 57  1  0
 19 58  1  0
 20 59  1  0
 20 60  1  0
 22 61  1  0
 22 62  1  0
 22 63  1  0
 23 64  1  0
 23 65  1  0
 23 66  1  0
 25 67  1  0
 27 68  1  0
 31 69  1  0
 32 70  1  0
M  END
>  <meeko>  (8) 
{"is_sidechain": [false], "free_energy": -6.198, "intermolecular_energy": -8.238, "internal_energy": -0.376}

$$$$
7VON_Alectinib_px8W5bK_out
     RDKit          3D

 70 75  0  0  0  0  0  0  0  0999 V2000
  114.7270  131.4640  211.0350 C   0  0  0  0  0  0  0  0  0  0  0  0
  114.5470  131.1600  212.5180 C   0  0  0  0  0  0  0  0  0  0  0  0
  115.4920  131.9380  213.3740 C   0  0  0  0  0  0  0  0  0  0  0  0
  115.3520  133.3220  213.4440 C   0  0  0  0  0  0  0  0  0  0  0  0
  116.2230  134.0860  214.2380 C   0  0  0  0  0  0  0  0  0  0  0  0
  117.2560  133.4600  214.9770 C   0  0  0  0  0  0  0  0  0  0  0  0
  117.3700  132.0580  214.8850 C   0  0  0  0  0  0  0  0  0  0  0  0
  116.4990  131.3060  214.0930 C   0  0  0  0  0  0  0  0  0  0  0  0
  116.6570  129.9170  214.0360 N   0  0  0  0  0  0  0  0  0  0  0  0
  116.1190  129.1280  215.1540 C   0  0  0  0  0  0  0  0  0  0  0  0
  115.8210  127.6960  214.7060 C   0  0  0  0  0  0  0  0  0  0  0  0
  117.0480  127.0540  214.0550 C   0  0  0  0  0  0  0  0  0  0  0  0
  116.7180  125.7110  213.5830 N   0  0  0  0  0  0  0  0  0  0  0  0
  115.3030  125.6260  213.1930 C   0  0  0  0  0  0  0  0  0  0  0  0
  114.9800  124.2140  212.7160 C   0  0  0  0  0  0  0  0  0  0  0  0
  115.2730  123.2630  213.7420 O   0  0  0  0  0  0  0  0  0  0  0  0
  116.6530  123.3160  214.1040 C   0  0  0  0  0  0  0  0  0  0  0  0
  117.0150  124.7070  214.6150 C   0  0  0  0  0  0  0  0  0  0  0  0
  117.5250  127.9180  212.8860 C   0  0  0  0  0  0  0  0  0  0  0  0
  117.8150  129.3510  213.3360 C   0  0  0  0  0  0  0  0  0  0  0  0
  118.2400  134.2510  215.8640 C   0  0  0  0  0  0  0  0  0  0  0  0
  119.6840  134.0280  215.3610 C   0  0  0  0  0  0  0  0  0  0  0  0
  118.1180  133.7720  217.3290 C   0  0  0  0  0  0  0  0  0  0  0  0
  117.9260  135.7230  215.8060 C   0  0  0  0  0  0  0  0  0  0  0  0
  118.6130  136.7000  216.4790 N   0  0  0  0  0  0  0  0  0  0  0  0
  118.0700  137.9350  216.2060 C   0  0  0  0  0  0  0  0  0  0  0  0
  118.4450  139.2020  216.6670 C   0  0  0  0  0  0  0  0  0  0  0  0
  117.7050  140.3000  216.2190 C   0  0  0  0  0  0  0  0  0  0  0  0
  118.0550  141.6120  216.6670 C   0  0  0  0  0  0  0  0  0  0  0  0
  118.3390  142.6770  217.0300 N   0  0  0  0  0  0  0  0  0  0  0  0
  116.6330  140.1330  215.3460 C   0  0  0  0  0  0  0  0  0  0  0  0
  116.2700  138.8590  214.8930 C   0  0  0  0  0  0  0  0  0  0  0  0
  117.0010  137.7340  215.3300 C   0  0  0  0  0  0  0  0  0  0  0  0
  116.9220  136.3300  215.0860 C   0  0  0  0  0  0  0  0  0  0  0  0
  116.0140  135.5640  214.2660 C   0  0  0  0  0  0  0  0  0  0  0  0
  115.1140  136.0860  213.6190 O   0  0  0  0  0  0  0  0  0  0  0  0
  115.2843  132.4052  210.9187 H   0  0  0  0  0  0  0  0  0  0  0  0
  115.2861  130.6455  210.5581 H   0  0  0  0  0  0  0  0  0  0  0  0
  113.7405  131.5607  210.5581 H   0  0  0  0  0  0  0  0  0  0  0  0
  113.5165  131.4125  212.8085 H   0  0  0  0  0  0  0  0  0  0  0  0
  114.7564  130.0910  212.6706 H   0  0  0  0  0  0  0  0  0  0  0  0
  114.5540  133.8200  212.8737 H   0  0  0  0  0  0  0  0  0  0  0  0
  118.1625  131.5447  215.4494 H   0  0  0  0  0  0  0  0  0  0  0  0
  116.8571  129.1058  215.9693 H   0  0  0  0  0  0  0  0  0  0  0  0
  115.1845  129.5937  215.5003 H   0  0  0  0  0  0  0  0  0  0  0  0
  115.5263  127.0998  215.5822 H   0  0  0  0  0  0  0  0  0  0  0  0
  115.0081  127.7244  213.9654 H   0  0  0  0  0  0  0  0  0  0  0  0
  117.8540  126.9805  214.7999 H   0  0  0  0  0  0  0  0  0  0  0  0
  114.6706  125.8721  214.0588 H   0  0  0  0  0  0  0  0  0  0  0  0
  115.1090  126.3373  212.3766 H   0  0  0  0  0  0  0  0  0  0  0  0
  113.9120  124.1533  212.4596 H   0  0  0  0  0  0  0  0  0  0  0  0
  115.5940  123.9864  211.8322 H   0  0  0  0  0  0  0  0  0  0  0  0
  116.8491  122.5769  214.8947 H   0  0  0  0  0  0  0  0  0  0  0  0
  117.2637  123.0913  213.2171 H   0  0  0  0  0  0  0  0  0  0  0  0
  116.4281  124.9280  215.5187 H   0  0  0  0  0  0  0  0  0  0  0  0
  118.0886  124.7380  214.8527 H   0  0  0  0  0  0  0  0  0  0  0  0
  118.4440  127.4806  212.4687 H   0  0  0  0  0  0  0  0  0  0  0  0
  116.7285  127.9467  212.1278 H   0  0  0  0  0  0  0  0  0  0  0  0
  118.6814  129.3487  214.0138 H   0  0  0  0  0  0  0  0  0  0  0  0
  118.0276  129.9651  212.4485 H   0  0  0  0  0  0  0  0  0  0  0  0
  120.3603  133.9236  216.2222 H   0  0  0  0  0  0  0  0  0  0  0  0
  119.7227  133.1132  214.7513 H   0  0  0  0  0  0  0  0  0  0  0  0
  119.9969  134.8885  214.7513 H   0  0  0  0  0  0  0  0  0  0  0  0
  118.3316  134.6107  218.0080 H   0  0  0  0  0  0  0  0  0  0  0  0
  117.0974  133.4040  217.5106 H   0  0  0  0  0  0  0  0  0  0  0  0
  118.8382  132.9606  217.5106 H   0  0  0  0  0  0  0  0  0  0  0  0
  119.4050  136.5410  217.0870 H   0  0  0  0  0  0  0  0  0  0  0  0
  119.2919  139.3293  217.3573 H   0  0  0  0  0  0  0  0  0  0  0  0
  116.0648  141.0123  215.0084 H   0  0  0  0  0  0  0  0  0  0  0  0
  115.4225  138.7361  214.2026 H   0  0  0  0  0  0  0  0  0  0  0  0
  1  2  1  0
  2  3  1  0
  3  4  2  0
  4  5  1  0
  5  6  2  0
  6  7  1  0
  7  8  2  0
  8  9  1  0
  9 10  1  0
 10 11  1  0
 11 12  1  0
 12 13  1  0
 13 14  1  0
 14 15  1  0
 15 16  1  0
 16 17  1  0
 17 18  1  0
 12 19  1  0
 19 20  1  0
  6 21  1  0
 21 22  1  0
 21 23  1  0
 21 24  1  0
 24 25  1  0
 25 26  1  0
 26 27  2  0
 27 28  1  0
 28 29  1  0
 29 30  3  0
 28 31  2  0
 31 32  1  0
 32 33  2  0
 33 34  1  0
 34 35  1  0
 35 36  2  0
  8  3  1  0
 20  9  1  0
 34 24  2  0
 35  5  1  0
 18 13  1  0
 33 26  1  0
  1 37  1  0
  1 38  1  0
  1 39  1  0
  2 40  1  0
  2 41  1  0
  4 42  1  0
  7 43  1  0
 10 44  1  0
 10 45  1  0
 11 46  1  0
 11 47  1  0
 12 48  1  0
 14 49  1  0
 14 50  1  0
 15 51  1  0
 15 52  1  0
 17 53  1  0
 17 54  1  0
 18 55  1  0
 18 56  1  0
 19 57  1  0
 19 58  1  0
 20 59  1  0
 20 60  1  0
 22 61  1  0
 22 62  1  0
 22 63  1  0
 23 64  1  0
 23 65  1  0
 23 66  1  0
 25 67  1  0
 27 68  1  0
 31 69  1  0
 32 70  1  0
M  END
>  <meeko>  (9) 
{"is_sidechain": [false], "free_energy": -6.007, "intermolecular_energy": -7.477, "internal_energy": -0.902}

$$$$
