3P1I_Abemaciclib_94NAMRd_out
     RDKit          3D

 69 73  0  0  0  0  0  0  0  0999 V2000
   62.8530   30.2640   -7.7890 C   0  0  0  0  0  0  0  0  0  0  0  0
   61.9260   31.4670   -7.7740 C   0  0  0  0  0  0  0  0  0  0  0  0
   60.7080   31.1850   -7.0160 N   0  0  0  0  0  0  0  0  0  0  0  0
   60.0860   32.4290   -6.5480 C   0  0  0  0  0  0  0  0  0  0  0  0
   58.8070   32.1340   -5.7550 C   0  0  0  0  0  0  0  0  0  0  0  0
   57.8580   31.3580   -6.5630 N   0  0  0  0  0  0  0  0  0  0  0  0
   56.6420   31.0750   -5.8040 C   0  0  0  0  0  0  0  0  0  0  0  0
   56.8580   29.9900   -4.7830 C   0  0  0  0  0  0  0  0  0  0  0  0
   56.6340   28.6540   -5.0980 C   0  0  0  0  0  0  0  0  0  0  0  0
   56.8440   27.6730   -4.1340 C   0  0  0  0  0  0  0  0  0  0  0  0
   57.2740   28.0790   -2.8800 C   0  0  0  0  0  0  0  0  0  0  0  0
   57.4840   27.0680   -1.9090 N   0  0  0  0  0  0  0  0  0  0  0  0
   57.4050   25.6680   -1.9680 C   0  0  0  0  0  0  0  0  0  0  0  0
   56.9000   25.0480   -0.8840 N   0  0  0  0  0  0  0  0  0  0  0  0
   56.8370   23.7040   -0.9740 C   0  0  0  0  0  0  0  0  0  0  0  0
   57.2500   22.9890   -2.0800 C   0  0  0  0  0  0  0  0  0  0  0  0
   57.1680   21.6550   -2.1230 F   0  0  0  0  0  0  0  0  0  0  0  0
   57.7480   23.7410   -3.1250 C   0  0  0  0  0  0  0  0  0  0  0  0
   58.2130   23.1190   -4.3410 C   0  0  0  0  0  0  0  0  0  0  0  0
   57.2910   22.5110   -5.1970 C   0  0  0  0  0  0  0  0  0  0  0  0
   57.7080   21.8950   -6.3840 C   0  0  0  0  0  0  0  0  0  0  0  0
   56.8130   21.3180   -7.1960 F   0  0  0  0  0  0  0  0  0  0  0  0
   59.0770   21.9000   -6.6980 C   0  0  0  0  0  0  0  0  0  0  0  0
   59.7370   21.3740   -7.7850 N   0  0  0  0  0  0  0  0  0  0  0  0
   61.0050   21.6570   -7.5840 C   0  0  0  0  0  0  0  0  0  0  0  0
   62.1240   21.3010   -8.4800 C   0  0  0  0  0  0  0  0  0  0  0  0
   61.1970   22.3420   -6.4170 N   0  0  0  0  0  0  0  0  0  0  0  0
   62.4630   22.8060   -5.8960 C   0  0  0  0  0  0  0  0  0  0  0  0
   62.6990   22.3120   -4.4660 C   0  0  0  0  0  0  0  0  0  0  0  0
   62.5790   24.3310   -5.9710 C   0  0  0  0  0  0  0  0  0  0  0  0
   59.9710   22.5130   -5.8250 C   0  0  0  0  0  0  0  0  0  0  0  0
   59.5800   23.1330   -4.6380 C   0  0  0  0  0  0  0  0  0  0  0  0
   57.8390   25.0870   -3.1020 N   0  0  0  0  0  0  0  0  0  0  0  0
   57.5010   29.3670   -2.5370 N   0  0  0  0  0  0  0  0  0  0  0  0
   57.2860   30.2910   -3.5000 C   0  0  0  0  0  0  0  0  0  0  0  0
   58.4810   30.1140   -7.0320 C   0  0  0  0  0  0  0  0  0  0  0  0
   59.7590   30.4090   -7.8250 C   0  0  0  0  0  0  0  0  0  0  0  0
   63.0830   29.9655   -6.7556 H   0  0  0  0  0  0  0  0  0  0  0  0
   62.3622   29.4294   -8.3111 H   0  0  0  0  0  0  0  0  0  0  0  0
   63.7851   30.5258   -8.3111 H   0  0  0  0  0  0  0  0  0  0  0  0
   62.4484   32.3171   -7.3108 H   0  0  0  0  0  0  0  0  0  0  0  0
   61.6447   31.7036   -8.8108 H   0  0  0  0  0  0  0  0  0  0  0  0
   60.7956   32.9658   -5.9012 H   0  0  0  0  0  0  0  0  0  0  0  0
   59.8247   33.0431   -7.4224 H   0  0  0  0  0  0  0  0  0  0  0  0
   59.0664   31.5597   -4.8534 H   0  0  0  0  0  0  0  0  0  0  0  0
   58.3358   33.0889   -5.4793 H   0  0  0  0  0  0  0  0  0  0  0  0
   56.3241   31.9922   -5.2866 H   0  0  0  0  0  0  0  0  0  0  0  0
   55.8716   30.7309   -6.5098 H   0  0  0  0  0  0  0  0  0  0  0  0
   56.2921   28.3740   -6.1053 H   0  0  0  0  0  0  0  0  0  0  0  0
   56.6744   26.6098   -4.3594 H   0  0  0  0  0  0  0  0  0  0  0  0
   57.7440   27.4100   -0.9890 H   0  0  0  0  0  0  0  0  0  0  0  0
   56.4333   23.1454   -0.1167 H   0  0  0  0  0  0  0  0  0  0  0  0
   56.2227   22.5162   -4.9351 H   0  0  0  0  0  0  0  0  0  0  0  0
   63.0013   21.0219   -7.8779 H   0  0  0  0  0  0  0  0  0  0  0  0
   61.8297   20.4521   -9.1147 H   0  0  0  0  0  0  0  0  0  0  0  0
   62.3743   22.1639   -9.1147 H   0  0  0  0  0  0  0  0  0  0  0  0
   63.2494   22.3771   -6.5345 H   0  0  0  0  0  0  0  0  0  0  0  0
   62.3380   23.0676   -3.7528 H   0  0  0  0  0  0  0  0  0  0  0  0
   62.1539   21.3696   -4.3090 H   0  0  0  0  0  0  0  0  0  0  0  0
   63.7747   22.1439   -4.3090 H   0  0  0  0  0  0  0  0  0  0  0  0
   62.6106   24.7468   -4.9531 H   0  0  0  0  0  0  0  0  0  0  0  0
   63.5004   24.6027   -6.5069 H   0  0  0  0  0  0  0  0  0  0  0  0
   61.7093   24.7390   -6.5069 H   0  0  0  0  0  0  0  0  0  0  0  0
   60.3109   23.6096   -3.9683 H   0  0  0  0  0  0  0  0  0  0  0  0
   57.4618   31.3476   -3.2495 H   0  0  0  0  0  0  0  0  0  0  0  0
   58.7323   29.4872   -6.1637 H   0  0  0  0  0  0  0  0  0  0  0  0
   57.7713   29.5912   -7.6900 H   0  0  0  0  0  0  0  0  0  0  0  0
   60.2285   29.4586   -8.1187 H   0  0  0  0  0  0  0  0  0  0  0  0
   59.4930   30.9964   -8.7162 H   0  0  0  0  0  0  0  0  0  0  0  0
  1  2  1  0
  2  3  1  0
  3  4  1  0
  4  5  1  0
  5  6  1  0
  6  7  1  0
  7  8  1  0
  8  9  2  0
  9 10  1  0
 10 11  2  0
 11 12  1  0
 12 13  1  0
 13 14  2  0
 14 15  1  0
 15 16  2  0
 16 17  1  0
 16 18  1  0
 18 19  1  0
 19 20  2  0
 20 21  1  0
 21 22  1  0
 21 23  2  0
 23 24  1  0
 24 25  2  0
 25 26  1  0
 25 27  1  0
 27 28  1  0
 28 29  1  0
 28 30  1  0
 27 31  1  0
 31 32  2  0
 18 33  2  0
 11 34  1  0
 34 35  2  0
  6 36  1  0
 36 37  1  0
 37  3  1  0
 35  8  1  0
 33 13  1  0
 32 19  1  0
 31 23  1  0
  1 38  1  0
  1 39  1  0
  1 40  1  0
  2 41  1  0
  2 42  1  0
  4 43  1  0
  4 44  1  0
  5 45  1  0
  5 46  1  0
  7 47  1  0
  7 48  1  0
  9 49  1  0
 10 50  1  0
 12 51  1  0
 15 52  1  0
 20 53  1  0
 26 54  1  0
 26 55  1  0
 26 56  1  0
 28 57  1  0
 29 58  1  0
 29 59  1  0
 29 60  1  0
 30 61  1  0
 30 62  1  0
 30 63  1  0
 32 64  1  0
 35 65  1  0
 36 66  1  0
 36 67  1  0
 37 68  1  0
 37 69  1  0
M  END
>  <meeko>  (1) 
{"is_sidechain": [false], "free_energy": -7.905, "intermolecular_energy": -11.14, "internal_energy": -0.073}

$$$$
3P1I_Abemaciclib_94NAMRd_out
     RDKit          3D

 69 73  0  0  0  0  0  0  0  0999 V2000
   56.5670   31.0410   -2.3920 C   0  0  0  0  0  0  0  0  0  0  0  0
   56.4750   30.0530   -3.5420 C   0  0  0  0  0  0  0  0  0  0  0  0
   57.6400   30.1570   -4.4200 N   0  0  0  0  0  0  0  0  0  0  0  0
   57.3890   29.4830   -5.7000 C   0  0  0  0  0  0  0  0  0  0  0  0
   58.6090   29.5930   -6.6220 C   0  0  0  0  0  0  0  0  0  0  0  0
   58.9720   30.9980   -6.8440 N   0  0  0  0  0  0  0  0  0  0  0  0
   60.1360   31.1010   -7.7200 C   0  0  0  0  0  0  0  0  0  0  0  0
   61.0740   29.9360   -7.5440 C   0  0  0  0  0  0  0  0  0  0  0  0
   60.9540   28.7930   -8.3270 C   0  0  0  0  0  0  0  0  0  0  0  0
   61.8370   27.7340   -8.1420 C   0  0  0  0  0  0  0  0  0  0  0  0
   62.8140   27.8680   -7.1680 C   0  0  0  0  0  0  0  0  0  0  0  0
   63.7070   26.7820   -6.9920 N   0  0  0  0  0  0  0  0  0  0  0  0
   63.6250   25.6020   -6.2360 C   0  0  0  0  0  0  0  0  0  0  0  0
   64.7890   25.0900   -5.7930 N   0  0  0  0  0  0  0  0  0  0  0  0
   64.6740   23.9570   -5.0690 C   0  0  0  0  0  0  0  0  0  0  0  0
   63.4700   23.3460   -4.7870 C   0  0  0  0  0  0  0  0  0  0  0  0
   63.4060   22.2230   -4.0640 F   0  0  0  0  0  0  0  0  0  0  0  0
   62.3500   23.9700   -5.2980 C   0  0  0  0  0  0  0  0  0  0  0  0
   61.0280   23.4370   -5.0760 C   0  0  0  0  0  0  0  0  0  0  0  0
   60.4460   22.6160   -6.0450 C   0  0  0  0  0  0  0  0  0  0  0  0
   59.1630   22.0840   -5.8630 C   0  0  0  0  0  0  0  0  0  0  0  0
   58.6190   21.2970   -6.8010 F   0  0  0  0  0  0  0  0  0  0  0  0
   58.4700   22.3930   -4.6810 C   0  0  0  0  0  0  0  0  0  0  0  0
   57.2170   22.0040   -4.2630 N   0  0  0  0  0  0  0  0  0  0  0  0
   57.0580   22.5730   -3.0890 C   0  0  0  0  0  0  0  0  0  0  0  0
   55.8650   22.4580   -2.2270 C   0  0  0  0  0  0  0  0  0  0  0  0
   58.1500   23.3110   -2.7270 N   0  0  0  0  0  0  0  0  0  0  0  0
   58.3050   24.0630   -1.5010 C   0  0  0  0  0  0  0  0  0  0  0  0
   57.9170   25.5320   -1.6880 C   0  0  0  0  0  0  0  0  0  0  0  0
   59.7250   23.9410   -0.9410 C   0  0  0  0  0  0  0  0  0  0  0  0
   59.0760   23.2130   -3.7350 C   0  0  0  0  0  0  0  0  0  0  0  0
   60.3510   23.7550   -3.8930 C   0  0  0  0  0  0  0  0  0  0  0  0
   62.3910   25.1030   -6.0290 N   0  0  0  0  0  0  0  0  0  0  0  0
   62.9620   28.9630   -6.3880 N   0  0  0  0  0  0  0  0  0  0  0  0
   62.0860   29.9710   -6.5970 C   0  0  0  0  0  0  0  0  0  0  0  0
   59.2210   31.6720   -5.5640 C   0  0  0  0  0  0  0  0  0  0  0  0
   58.0020   31.5630   -4.6430 C   0  0  0  0  0  0  0  0  0  0  0  0
   56.5164   30.4977   -1.4369 H   0  0  0  0  0  0  0  0  0  0  0  0
   57.5199   31.5871   -2.4531 H   0  0  0  0  0  0  0  0  0  0  0  0
   55.7313   31.7537   -2.4531 H   0  0  0  0  0  0  0  0  0  0  0  0
   56.4216   29.0323   -3.1353 H   0  0  0  0  0  0  0  0  0  0  0  0
   55.5735   30.2830   -4.1289 H   0  0  0  0  0  0  0  0  0  0  0  0
   57.1737   28.4208   -5.5120 H   0  0  0  0  0  0  0  0  0  0  0  0
   56.5316   29.9666   -6.1908 H   0  0  0  0  0  0  0  0  0  0  0  0
   59.4588   29.0702   -6.1590 H   0  0  0  0  0  0  0  0  0  0  0  0
   58.3596   29.1367   -7.5913 H   0  0  0  0  0  0  0  0  0  0  0  0
   59.7937   31.1277   -8.7651 H   0  0  0  0  0  0  0  0  0  0  0  0
   60.6803   32.0204   -7.4583 H   0  0  0  0  0  0  0  0  0  0  0  0
   60.1640   28.7265   -9.0896 H   0  0  0  0  0  0  0  0  0  0  0  0
   61.7622   26.8198   -8.7491 H   0  0  0  0  0  0  0  0  0  0  0  0
   64.5770   26.8590   -7.5090 H   0  0  0  0  0  0  0  0  0  0  0  0
   65.5935   23.4940   -4.6814 H   0  0  0  0  0  0  0  0  0  0  0  0
   61.0035   22.3839   -6.9644 H   0  0  0  0  0  0  0  0  0  0  0  0
   56.1715   22.4875   -1.1710 H   0  0  0  0  0  0  0  0  0  0  0  0
   55.1811   23.2944   -2.4339 H   0  0  0  0  0  0  0  0  0  0  0  0
   55.3535   21.5064   -2.4339 H   0  0  0  0  0  0  0  0  0  0  0  0
   57.6147   23.6244   -0.7654 H   0  0  0  0  0  0  0  0  0  0  0  0
   57.7917   26.0063   -0.7035 H   0  0  0  0  0  0  0  0  0  0  0  0
   58.7086   26.0520   -2.2475 H   0  0  0  0  0  0  0  0  0  0  0  0
   56.9719   25.5933   -2.2475 H   0  0  0  0  0  0  0  0  0  0  0  0
   59.6871   23.9443    0.1583 H   0  0  0  0  0  0  0  0  0  0  0  0
   60.1771   23.0007   -1.2895 H   0  0  0  0  0  0  0  0  0  0  0  0
   60.3308   24.7904   -1.2895 H   0  0  0  0  0  0  0  0  0  0  0  0
   60.8026   24.4008   -3.1255 H   0  0  0  0  0  0  0  0  0  0  0  0
   62.1820   30.8749   -5.9775 H   0  0  0  0  0  0  0  0  0  0  0  0
   60.0866   31.2037   -5.0727 H   0  0  0  0  0  0  0  0  0  0  0  0
   59.4197   32.7360   -5.7598 H   0  0  0  0  0  0  0  0  0  0  0  0
   58.2373   32.0323   -3.6764 H   0  0  0  0  0  0  0  0  0  0  0  0
   57.1529   32.0739   -5.1205 H   0  0  0  0  0  0  0  0  0  0  0  0
  1  2  1  0
  2  3  1  0
  3  4  1  0
  4  5  1  0
  5  6  1  0
  6  7  1  0
  7  8  1  0
  8  9  2  0
  9 10  1  0
 10 11  2  0
 11 12  1  0
 12 13  1  0
 13 14  2  0
 14 15  1  0
 15 16  2  0
 16 17  1  0
 16 18  1  0
 18 19  1  0
 19 20  2  0
 20 21  1  0
 21 22  1  0
 21 23  2  0
 23 24  1  0
 24 25  2  0
 25 26  1  0
 25 27  1  0
 27 28  1  0
 28 29  1  0
 28 30  1  0
 27 31  1  0
 31 32  2  0
 18 33  2  0
 11 34  1  0
 34 35  2  0
  6 36  1  0
 36 37  1  0
 37  3  1  0
 35  8  1  0
 33 13  1  0
 32 19  1  0
 31 23  1  0
  1 38  1  0
  1 39  1  0
  1 40  1  0
  2 41  1  0
  2 42  1  0
  4 43  1  0
  4 44  1  0
  5 45  1  0
  5 46  1  0
  7 47  1  0
  7 48  1  0
  9 49  1  0
 10 50  1  0
 12 51  1  0
 15 52  1  0
 20 53  1  0
 26 54  1  0
 26 55  1  0
 26 56  1  0
 28 57  1  0
 29 58  1  0
 29 59  1  0
 29 60  1  0
 30 61  1  0
 30 62  1  0
 30 63  1  0
 32 64  1  0
 35 65  1  0
 36 66  1  0
 36 67  1  0
 37 68  1  0
 37 69  1  0
M  END
>  <meeko>  (2) 
{"is_sidechain": [false], "free_energy": -7.418, "intermolecular_energy": -9.975, "internal_energy": -0.551}

$$$$
3P1I_Abemaciclib_94NAMRd_out
     RDKit          3D

 69 73  0  0  0  0  0  0  0  0999 V2000
   60.8300   32.8580   -6.8440 C   0  0  0  0  0  0  0  0  0  0  0  0
   59.3990   32.4510   -7.1460 C   0  0  0  0  0  0  0  0  0  0  0  0
   58.8790   31.5500   -6.1170 N   0  0  0  0  0  0  0  0  0  0  0  0
   57.8610   32.2240   -5.3010 C   0  0  0  0  0  0  0  0  0  0  0  0
   57.3140   31.2800   -4.2240 C   0  0  0  0  0  0  0  0  0  0  0  0
   56.7630   30.0600   -4.8280 N   0  0  0  0  0  0  0  0  0  0  0  0
   56.2450   29.1610   -3.8000 C   0  0  0  0  0  0  0  0  0  0  0  0
   56.6600   27.7340   -4.0420 C   0  0  0  0  0  0  0  0  0  0  0  0
   56.4740   27.1340   -5.2830 C   0  0  0  0  0  0  0  0  0  0  0  0
   56.8700   25.8150   -5.4780 C   0  0  0  0  0  0  0  0  0  0  0  0
   57.4400   25.1450   -4.4070 C   0  0  0  0  0  0  0  0  0  0  0  0
   57.8390   23.8020   -4.6210 N   0  0  0  0  0  0  0  0  0  0  0  0
   59.0230   23.2330   -5.1160 C   0  0  0  0  0  0  0  0  0  0  0  0
   58.9790   21.9230   -5.4240 N   0  0  0  0  0  0  0  0  0  0  0  0
   60.1330   21.4090   -5.8970 C   0  0  0  0  0  0  0  0  0  0  0  0
   61.2880   22.1450   -6.0640 C   0  0  0  0  0  0  0  0  0  0  0  0
   62.4090   21.5910   -6.5380 F   0  0  0  0  0  0  0  0  0  0  0  0
   61.2040   23.4770   -5.7120 C   0  0  0  0  0  0  0  0  0  0  0  0
   62.3390   24.3590   -5.8390 C   0  0  0  0  0  0  0  0  0  0  0  0
   63.5750   23.9670   -5.3180 C   0  0  0  0  0  0  0  0  0  0  0  0
   64.6970   24.7990   -5.4220 C   0  0  0  0  0  0  0  0  0  0  0  0
   65.8760   24.4090   -4.9190 F   0  0  0  0  0  0  0  0  0  0  0  0
   64.5540   26.0410   -6.0610 C   0  0  0  0  0  0  0  0  0  0  0  0
   65.4850   27.0300   -6.2910 N   0  0  0  0  0  0  0  0  0  0  0  0
   64.8270   27.9750   -6.9240 C   0  0  0  0  0  0  0  0  0  0  0  0
   65.3930   29.2560   -7.3940 C   0  0  0  0  0  0  0  0  0  0  0  0
   63.5140   27.6460   -7.1150 N   0  0  0  0  0  0  0  0  0  0  0  0
   62.5160   28.4580   -7.7750 C   0  0  0  0  0  0  0  0  0  0  0  0
   61.8490   29.4320   -6.8000 C   0  0  0  0  0  0  0  0  0  0  0  0
   61.4700   27.5960   -8.4870 C   0  0  0  0  0  0  0  0  0  0  0  0
   63.3100   26.4040   -6.5680 C   0  0  0  0  0  0  0  0  0  0  0  0
   62.1790   25.5920   -6.4780 C   0  0  0  0  0  0  0  0  0  0  0  0
   60.0830   24.0560   -5.2340 N   0  0  0  0  0  0  0  0  0  0  0  0
   57.6360   25.6940   -3.1880 N   0  0  0  0  0  0  0  0  0  0  0  0
   57.2400   26.9780   -3.0360 C   0  0  0  0  0  0  0  0  0  0  0  0
   57.7810   29.3880   -5.6450 C   0  0  0  0  0  0  0  0  0  0  0  0
   58.3270   30.3310   -6.7220 C   0  0  0  0  0  0  0  0  0  0  0  0
   60.9772   32.8999   -5.7547 H   0  0  0  0  0  0  0  0  0  0  0  0
   61.5206   32.1206   -7.2792 H   0  0  0  0  0  0  0  0  0  0  0  0
   61.0292   33.8484   -7.2792 H   0  0  0  0  0  0  0  0  0  0  0  0
   58.7699   33.3525   -7.1854 H   0  0  0  0  0  0  0  0  0  0  0  0
   59.3819   31.9249   -8.1119 H   0  0  0  0  0  0  0  0  0  0  0  0
   58.3114   33.1024   -4.8157 H   0  0  0  0  0  0  0  0  0  0  0  0
   57.0315   32.5311   -5.9550 H   0  0  0  0  0  0  0  0  0  0  0  0
   58.1287   31.0059   -3.5377 H   0  0  0  0  0  0  0  0  0  0  0  0
   56.5102   31.7965   -3.6789 H   0  0  0  0  0  0  0  0  0  0  0  0
   56.6290   29.4819   -2.8204 H   0  0  0  0  0  0  0  0  0  0  0  0
   55.1463   29.2064   -3.8291 H   0  0  0  0  0  0  0  0  0  0  0  0
   56.0155   27.7004   -6.1070 H   0  0  0  0  0  0  0  0  0  0  0  0
   56.7351   25.3196   -6.4508 H   0  0  0  0  0  0  0  0  0  0  0  0
   57.1420   23.1070   -4.3720 H   0  0  0  0  0  0  0  0  0  0  0  0
   60.1544   20.3423   -6.1648 H   0  0  0  0  0  0  0  0  0  0  0  0
   63.6681   22.9911   -4.8191 H   0  0  0  0  0  0  0  0  0  0  0  0
   65.6668   29.8758   -6.5275 H   0  0  0  0  0  0  0  0  0  0  0  0
   66.2883   29.0601   -8.0023 H   0  0  0  0  0  0  0  0  0  0  0  0
   64.6453   29.7860   -8.0023 H   0  0  0  0  0  0  0  0  0  0  0  0
   63.0377   29.0524   -8.5395 H   0  0  0  0  0  0  0  0  0  0  0  0
   62.0624   29.1203   -5.7669 H   0  0  0  0  0  0  0  0  0  0  0  0
   62.2437   30.4452   -6.9663 H   0  0  0  0  0  0  0  0  0  0  0  0
   60.7616   29.4302   -6.9663 H   0  0  0  0  0  0  0  0  0  0  0  0
   60.8473   27.0828   -7.7394 H   0  0  0  0  0  0  0  0  0  0  0  0
   60.8344   28.2360   -9.1166 H   0  0  0  0  0  0  0  0  0  0  0  0
   61.9768   26.8498   -9.1166 H   0  0  0  0  0  0  0  0  0  0  0  0
   61.2087   25.9067   -6.8898 H   0  0  0  0  0  0  0  0  0  0  0  0
   57.3873   27.4511   -2.0539 H   0  0  0  0  0  0  0  0  0  0  0  0
   58.6083   29.0651   -4.9959 H   0  0  0  0  0  0  0  0  0  0  0  0
   57.3191   28.5203   -6.1387 H   0  0  0  0  0  0  0  0  0  0  0  0
   59.1204   29.8161   -7.2836 H   0  0  0  0  0  0  0  0  0  0  0  0
   57.5032   30.6130   -7.3942 H   0  0  0  0  0  0  0  0  0  0  0  0
  1  2  1  0
  2  3  1  0
  3  4  1  0
  4  5  1  0
  5  6  1  0
  6  7  1  0
  7  8  1  0
  8  9  2  0
  9 10  1  0
 10 11  2  0
 11 12  1  0
 12 13  1  0
 13 14  2  0
 14 15  1  0
 15 16  2  0
 16 17  1  0
 16 18  1  0
 18 19  1  0
 19 20  2  0
 20 21  1  0
 21 22  1  0
 21 23  2  0
 23 24  1  0
 24 25  2  0
 25 26  1  0
 25 27  1  0
 27 28  1  0
 28 29  1  0
 28 30  1  0
 27 31  1  0
 31 32  2  0
 18 33  2  0
 11 34  1  0
 34 35  2  0
  6 36  1  0
 36 37  1  0
 37  3  1  0
 35  8  1  0
 33 13  1  0
 32 19  1  0
 31 23  1  0
  1 38  1  0
  1 39  1  0
  1 40  1  0
  2 41  1  0
  2 42  1  0
  4 43  1  0
  4 44  1  0
  5 45  1  0
  5 46  1  0
  7 47  1  0
  7 48  1  0
  9 49  1  0
 10 50  1  0
 12 51  1  0
 15 52  1  0
 20 53  1  0
 26 54  1  0
 26 55  1  0
 26 56  1  0
 28 57  1  0
 29 58  1  0
 29 59  1  0
 29 60  1  0
 30 61  1  0
 30 62  1  0
 30 63  1  0
 32 64  1  0
 35 65  1  0
 36 66  1  0
 36 67  1  0
 37 68  1  0
 37 69  1  0
M  END
>  <meeko>  (3) 
{"is_sidechain": [false], "free_energy": -6.795, "intermolecular_energy": -9.697, "internal_energy": 0.049}

$$$$
3P1I_Abemaciclib_94NAMRd_out
     RDKit          3D

 69 73  0  0  0  0  0  0  0  0999 V2000
   57.7800   26.5610   -1.8220 C   0  0  0  0  0  0  0  0  0  0  0  0
   56.8390   26.8690   -2.9740 C   0  0  0  0  0  0  0  0  0  0  0  0
   57.2370   28.0950   -3.6660 N   0  0  0  0  0  0  0  0  0  0  0  0
   56.7700   28.0830   -5.0570 C   0  0  0  0  0  0  0  0  0  0  0  0
   57.1850   29.3680   -5.7820 C   0  0  0  0  0  0  0  0  0  0  0  0
   56.6760   30.5530   -5.0800 N   0  0  0  0  0  0  0  0  0  0  0  0
   57.0750   31.7760   -5.7710 C   0  0  0  0  0  0  0  0  0  0  0  0
   58.3990   31.6190   -6.4700 C   0  0  0  0  0  0  0  0  0  0  0  0
   58.4640   31.2780   -7.8170 C   0  0  0  0  0  0  0  0  0  0  0  0
   59.7020   31.1430   -8.4360 C   0  0  0  0  0  0  0  0  0  0  0  0
   60.8370   31.3540   -7.6680 C   0  0  0  0  0  0  0  0  0  0  0  0
   62.0910   31.2130   -8.3130 N   0  0  0  0  0  0  0  0  0  0  0  0
   63.1900   30.3740   -8.0710 C   0  0  0  0  0  0  0  0  0  0  0  0
   64.4060   30.8780   -8.3590 N   0  0  0  0  0  0  0  0  0  0  0  0
   65.4390   30.0460   -8.1140 C   0  0  0  0  0  0  0  0  0  0  0  0
   65.2940   28.7720   -7.6070 C   0  0  0  0  0  0  0  0  0  0  0  0
   66.3500   27.9830   -7.3810 F   0  0  0  0  0  0  0  0  0  0  0  0
   63.9970   28.3730   -7.3540 C   0  0  0  0  0  0  0  0  0  0  0  0
   63.7050   27.0650   -6.8210 C   0  0  0  0  0  0  0  0  0  0  0  0
   64.7180   26.3390   -6.1890 C   0  0  0  0  0  0  0  0  0  0  0  0
   64.4710   25.0650   -5.6620 C   0  0  0  0  0  0  0  0  0  0  0  0
   65.4510   24.3820   -5.0580 F   0  0  0  0  0  0  0  0  0  0  0  0
   63.1790   24.5280   -5.7840 C   0  0  0  0  0  0  0  0  0  0  0  0
   62.6800   23.3170   -5.3590 N   0  0  0  0  0  0  0  0  0  0  0  0
   61.4180   23.3210   -5.7250 C   0  0  0  0  0  0  0  0  0  0  0  0
   60.4480   22.2320   -5.4940 C   0  0  0  0  0  0  0  0  0  0  0  0
   61.0750   24.4780   -6.3670 N   0  0  0  0  0  0  0  0  0  0  0  0
   59.7710   24.8070   -6.8980 C   0  0  0  0  0  0  0  0  0  0  0  0
   58.7040   24.8250   -5.8010 C   0  0  0  0  0  0  0  0  0  0  0  0
   59.3700   23.8610   -8.0340 C   0  0  0  0  0  0  0  0  0  0  0  0
   62.1910   25.2750   -6.4190 C   0  0  0  0  0  0  0  0  0  0  0  0
   62.4130   26.5450   -6.9510 C   0  0  0  0  0  0  0  0  0  0  0  0
   62.9180   29.1520   -7.5740 N   0  0  0  0  0  0  0  0  0  0  0  0
   60.8130   31.6850   -6.3580 N   0  0  0  0  0  0  0  0  0  0  0  0
   59.5920   31.8090   -5.7910 C   0  0  0  0  0  0  0  0  0  0  0  0
   57.1410   30.5640   -3.6880 C   0  0  0  0  0  0  0  0  0  0  0  0
   56.7260   29.2790   -2.9640 C   0  0  0  0  0  0  0  0  0  0  0  0
   57.2596   26.7313   -0.8679 H   0  0  0  0  0  0  0  0  0  0  0  0
   58.1015   25.5107   -1.8819 H   0  0  0  0  0  0  0  0  0  0  0  0
   58.6603   27.2179   -1.8819 H   0  0  0  0  0  0  0  0  0  0  0  0
   56.8580   26.0317   -3.6871 H   0  0  0  0  0  0  0  0  0  0  0  0
   55.8258   27.0094   -2.5694 H   0  0  0  0  0  0  0  0  0  0  0  0
   57.2079   27.2182   -5.5769 H   0  0  0  0  0  0  0  0  0  0  0  0
   55.6721   28.0158   -5.0595 H   0  0  0  0  0  0  0  0  0  0  0  0
   58.2830   29.4188   -5.8250 H   0  0  0  0  0  0  0  0  0  0  0  0
   56.7613   29.3516   -6.7970 H   0  0  0  0  0  0  0  0  0  0  0  0
   56.3071   32.0300   -6.5165 H   0  0  0  0  0  0  0  0  0  0  0  0
   57.1780   32.5736   -5.0205 H   0  0  0  0  0  0  0  0  0  0  0  0
   57.5395   31.1157   -8.3905 H   0  0  0  0  0  0  0  0  0  0  0  0
   59.7783   30.8774   -9.5007 H   0  0  0  0  0  0  0  0  0  0  0  0
   62.2330   31.8320   -9.1050 H   0  0  0  0  0  0  0  0  0  0  0  0
   66.4560   30.4046   -8.3312 H   0  0  0  0  0  0  0  0  0  0  0  0
   65.7245   26.7746   -6.1041 H   0  0  0  0  0  0  0  0  0  0  0  0
   60.3150   22.0827   -4.4123 H   0  0  0  0  0  0  0  0  0  0  0  0
   59.4825   22.4984   -5.9488 H   0  0  0  0  0  0  0  0  0  0  0  0
   60.8238   21.3036   -5.9488 H   0  0  0  0  0  0  0  0  0  0  0  0
   59.8406   25.8224   -7.3152 H   0  0  0  0  0  0  0  0  0  0  0  0
   59.1916   24.8168   -4.8150 H   0  0  0  0  0  0  0  0  0  0  0  0
   58.0919   25.7336   -5.8998 H   0  0  0  0  0  0  0  0  0  0  0  0
   58.0616   23.9376   -5.8998 H   0  0  0  0  0  0  0  0  0  0  0  0
   58.9738   22.9264   -7.6103 H   0  0  0  0  0  0  0  0  0  0  0  0
   58.5972   24.3391   -8.6538 H   0  0  0  0  0  0  0  0  0  0  0  0
   60.2510   23.6381   -8.6538 H   0  0  0  0  0  0  0  0  0  0  0  0
   61.6111   27.1102   -7.4486 H   0  0  0  0  0  0  0  0  0  0  0  0
   59.5425   32.0772   -4.7253 H   0  0  0  0  0  0  0  0  0  0  0  0
   58.2378   30.6467   -3.6751 H   0  0  0  0  0  0  0  0  0  0  0  0
   56.6855   31.4218   -3.1715 H   0  0  0  0  0  0  0  0  0  0  0  0
   57.1313   29.2945   -1.9415 H   0  0  0  0  0  0  0  0  0  0  0  0
   55.6275   29.2274   -2.9405 H   0  0  0  0  0  0  0  0  0  0  0  0
  1  2  1  0
  2  3  1  0
  3  4  1  0
  4  5  1  0
  5  6  1  0
  6  7  1  0
  7  8  1  0
  8  9  2  0
  9 10  1  0
 10 11  2  0
 11 12  1  0
 12 13  1  0
 13 14  2  0
 14 15  1  0
 15 16  2  0
 16 17  1  0
 16 18  1  0
 18 19  1  0
 19 20  2  0
 20 21  1  0
 21 22  1  0
 21 23  2  0
 23 24  1  0
 24 25  2  0
 25 26  1  0
 25 27  1  0
 27 28  1  0
 28 29  1  0
 28 30  1  0
 27 31  1  0
 31 32  2  0
 18 33  2  0
 11 34  1  0
 34 35  2  0
  6 36  1  0
 36 37  1  0
 37  3  1  0
 35  8  1  0
 33 13  1  0
 32 19  1  0
 31 23  1  0
  1 38  1  0
  1 39  1  0
  1 40  1  0
  2 41  1  0
  2 42  1  0
  4 43  1  0
  4 44  1  0
  5 45  1  0
  5 46  1  0
  7 47  1  0
  7 48  1  0
  9 49  1  0
 10 50  1  0
 12 51  1  0
 15 52  1  0
 20 53  1  0
 26 54  1  0
 26 55  1  0
 26 56  1  0
 28 57  1  0
 29 58  1  0
 29 59  1  0
 29 60  1  0
 30 61  1  0
 30 62  1  0
 30 63  1  0
 32 64  1  0
 35 65  1  0
 36 66  1  0
 36 67  1  0
 37 68  1  0
 37 69  1  0
M  END
>  <meeko>  (4) 
{"is_sidechain": [false], "free_energy": -6.354, "intermolecular_energy": -8.915, "internal_energy": -0.113}

$$$$
