6QH4_Abemaciclib_94NAMRd_out
     RDKit          3D

 69 73  0  0  0  0  0  0  0  0999 V2000
  -13.2160   27.4910    7.6800 C   0  0  0  0  0  0  0  0  0  0  0  0
  -14.2930   26.5800    7.1160 C   0  0  0  0  0  0  0  0  0  0  0  0
  -15.6090   26.9240    7.6550 N   0  0  0  0  0  0  0  0  0  0  0  0
  -16.0090   25.9740    8.7000 C   0  0  0  0  0  0  0  0  0  0  0  0
  -17.3870   26.3350    9.2660 C   0  0  0  0  0  0  0  0  0  0  0  0
  -17.3940   27.7070    9.7890 N   0  0  0  0  0  0  0  0  0  0  0  0
  -18.7090   28.0500   10.3250 C   0  0  0  0  0  0  0  0  0  0  0  0
  -18.6750   28.2340   11.8190 C   0  0  0  0  0  0  0  0  0  0  0  0
  -19.8310   28.5380   12.5310 C   0  0  0  0  0  0  0  0  0  0  0  0
  -19.7680   28.7000   13.9120 C   0  0  0  0  0  0  0  0  0  0  0  0
  -18.5350   28.5510   14.5260 C   0  0  0  0  0  0  0  0  0  0  0  0
  -18.4870   28.7180   15.9330 N   0  0  0  0  0  0  0  0  0  0  0  0
  -18.5810   27.8090   16.9980 C   0  0  0  0  0  0  0  0  0  0  0  0
  -19.3650   26.7320   16.8020 N   0  0  0  0  0  0  0  0  0  0  0  0
  -19.4320   25.8790   17.8450 C   0  0  0  0  0  0  0  0  0  0  0  0
  -18.7590   26.0670   19.0340 C   0  0  0  0  0  0  0  0  0  0  0  0
  -18.8560   25.1920   20.0400 F   0  0  0  0  0  0  0  0  0  0  0  0
  -17.9870   27.2090   19.1100 C   0  0  0  0  0  0  0  0  0  0  0  0
  -17.2310   27.5260   20.2960 C   0  0  0  0  0  0  0  0  0  0  0  0
  -17.9020   27.9530   21.4450 C   0  0  0  0  0  0  0  0  0  0  0  0
  -17.1980   28.2710   22.6140 C   0  0  0  0  0  0  0  0  0  0  0  0
  -17.8550   28.6770   23.7080 F   0  0  0  0  0  0  0  0  0  0  0  0
  -15.7990   28.1520   22.6080 C   0  0  0  0  0  0  0  0  0  0  0  0
  -14.8860   28.3980   23.6090 N   0  0  0  0  0  0  0  0  0  0  0  0
  -13.7150   28.1290   23.0760 C   0  0  0  0  0  0  0  0  0  0  0  0
  -12.4090   28.2380   23.7570 C   0  0  0  0  0  0  0  0  0  0  0  0
  -13.8270   27.7190   21.7760 N   0  0  0  0  0  0  0  0  0  0  0  0
  -12.7380   27.3460   20.9010 C   0  0  0  0  0  0  0  0  0  0  0  0
  -12.0670   26.0490   21.3590 C   0  0  0  0  0  0  0  0  0  0  0  0
  -11.7110   28.4740   20.7670 C   0  0  0  0  0  0  0  0  0  0  0  0
  -15.1590   27.7250   21.4480 C   0  0  0  0  0  0  0  0  0  0  0  0
  -15.8380   27.4020   20.2730 C   0  0  0  0  0  0  0  0  0  0  0  0
  -17.8750   28.1040   18.1060 N   0  0  0  0  0  0  0  0  0  0  0  0
  -17.3910   28.2580   13.8680 N   0  0  0  0  0  0  0  0  0  0  0  0
  -17.4910   28.1060   12.5280 C   0  0  0  0  0  0  0  0  0  0  0  0
  -16.9930   28.6570    8.7440 C   0  0  0  0  0  0  0  0  0  0  0  0
  -15.6160   28.2960    8.1790 C   0  0  0  0  0  0  0  0  0  0  0  0
  -13.2500   27.4622    8.7791 H   0  0  0  0  0  0  0  0  0  0  0  0
  -12.2290   27.1495    7.3346 H   0  0  0  0  0  0  0  0  0  0  0  0
  -13.3891   28.5209    7.3346 H   0  0  0  0  0  0  0  0  0  0  0  0
  -14.3147   26.6843    6.0212 H   0  0  0  0  0  0  0  0  0  0  0  0
  -14.0586   25.5437    7.4010 H   0  0  0  0  0  0  0  0  0  0  0  0
  -16.0493   24.9619    8.2709 H   0  0  0  0  0  0  0  0  0  0  0  0
  -15.2714   26.0155    9.5150 H   0  0  0  0  0  0  0  0  0  0  0  0
  -18.1383   26.2500    8.4671 H   0  0  0  0  0  0  0  0  0  0  0  0
  -17.6220   25.6435   10.0885 H   0  0  0  0  0  0  0  0  0  0  0  0
  -19.0500   28.9862    9.8589 H   0  0  0  0  0  0  0  0  0  0  0  0
  -19.3964   27.2215   10.0988 H   0  0  0  0  0  0  0  0  0  0  0  0
  -20.7905   28.6498   12.0049 H   0  0  0  0  0  0  0  0  0  0  0  0
  -20.6683   28.9387   14.4972 H   0  0  0  0  0  0  0  0  0  0  0  0
  -18.3610   29.6770   16.2420 H   0  0  0  0  0  0  0  0  0  0  0  0
  -20.0597   24.9817   17.7411 H   0  0  0  0  0  0  0  0  0  0  0  0
  -18.9984   28.0407   21.4315 H   0  0  0  0  0  0  0  0  0  0  0  0
  -12.5613   28.2253   24.8463 H   0  0  0  0  0  0  0  0  0  0  0  0
  -11.7718   27.3899   23.4659 H   0  0  0  0  0  0  0  0  0  0  0  0
  -11.9212   29.1800   23.4659 H   0  0  0  0  0  0  0  0  0  0  0  0
  -13.1715   27.1668   19.9060 H   0  0  0  0  0  0  0  0  0  0  0  0
  -12.0489   26.0139   22.4583 H   0  0  0  0  0  0  0  0  0  0  0  0
  -12.6326   25.1877   20.9739 H   0  0  0  0  0  0  0  0  0  0  0  0
  -11.0372   26.0131   20.9739 H   0  0  0  0  0  0  0  0  0  0  0  0
  -11.4040   28.8112   21.7680 H   0  0  0  0  0  0  0  0  0  0  0  0
  -10.8315   28.1059   20.2184 H   0  0  0  0  0  0  0  0  0  0  0  0
  -12.1598   29.3152   20.2184 H   0  0  0  0  0  0  0  0  0  0  0  0
  -15.3038   27.0661   19.3720 H   0  0  0  0  0  0  0  0  0  0  0  0
  -16.5763   27.8660   11.9661 H   0  0  0  0  0  0  0  0  0  0  0  0
  -17.7338   28.6327    7.9312 H   0  0  0  0  0  0  0  0  0  0  0  0
  -16.9401   29.6636    9.1845 H   0  0  0  0  0  0  0  0  0  0  0  0
  -15.3659   28.9935    7.3660 H   0  0  0  0  0  0  0  0  0  0  0  0
  -14.8739   28.3676    8.9878 H   0  0  0  0  0  0  0  0  0  0  0  0
  1  2  1  0
  2  3  1  0
  3  4  1  0
  4  5  1  0
  5  6  1  0
  6  7  1  0
  7  8  1  0
  8  9  2  0
  9 10  1  0
 10 11  2  0
 11 12  1  0
 12 13  1  0
 13 14  2  0
 14 15  1  0
 15 16  2  0
 16 17  1  0
 16 18  1  0
 18 19  1  0
 19 20  2  0
 20 21  1  0
 21 22  1  0
 21 23  2  0
 23 24  1  0
 24 25  2  0
 25 26  1  0
 25 27  1  0
 27 28  1  0
 28 29  1  0
 28 30  1  0
 27 31  1  0
 31 32  2  0
 18 33  2  0
 11 34  1  0
 34 35  2  0
  6 36  1  0
 36 37  1  0
 37  3  1  0
 35  8  1  0
 33 13  1  0
 32 19  1  0
 31 23  1  0
  1 38  1  0
  1 39  1  0
  1 40  1  0
  2 41  1  0
  2 42  1  0
  4 43  1  0
  4 44  1  0
  5 45  1  0
  5 46  1  0
  7 47  1  0
  7 48  1  0
  9 49  1  0
 10 50  1  0
 12 51  1  0
 15 52  1  0
 20 53  1  0
 26 54  1  0
 26 55  1  0
 26 56  1  0
 28 57  1  0
 29 58  1  0
 29 59  1  0
 29 60  1  0
 30 61  1  0
 30 62  1  0
 30 63  1  0
 32 64  1  0
 35 65  1  0
 36 66  1  0
 36 67  1  0
 37 68  1  0
 37 69  1  0
M  END
>  <meeko>  (1) 
{"is_sidechain": [false], "free_energy": -5.582, "intermolecular_energy": -7.866, "internal_energy": -0.545}

$$$$
6QH4_Abemaciclib_94NAMRd_out
     RDKit          3D

 69 73  0  0  0  0  0  0  0  0999 V2000
  -11.3300   28.7190   22.1980 C   0  0  0  0  0  0  0  0  0  0  0  0
  -11.8690   27.5270   21.4250 C   0  0  0  0  0  0  0  0  0  0  0  0
  -13.3290   27.4750   21.4890 N   0  0  0  0  0  0  0  0  0  0  0  0
  -13.9230   28.5930   20.7460 C   0  0  0  0  0  0  0  0  0  0  0  0
  -15.4540   28.5370   20.8100 C   0  0  0  0  0  0  0  0  0  0  0  0
  -15.9530   27.2560   20.2950 N   0  0  0  0  0  0  0  0  0  0  0  0
  -17.4120   27.2040   20.3610 C   0  0  0  0  0  0  0  0  0  0  0  0
  -18.0410   27.4070   19.0080 C   0  0  0  0  0  0  0  0  0  0  0  0
  -19.1280   26.6400   18.6000 C   0  0  0  0  0  0  0  0  0  0  0  0
  -19.6890   26.8530   17.3450 C   0  0  0  0  0  0  0  0  0  0  0  0
  -19.1300   27.8340   16.5430 C   0  0  0  0  0  0  0  0  0  0  0  0
  -19.7140   28.0390   15.2670 N   0  0  0  0  0  0  0  0  0  0  0  0
  -19.2130   27.8960   13.9640 C   0  0  0  0  0  0  0  0  0  0  0  0
  -19.9590   28.4220   12.9730 N   0  0  0  0  0  0  0  0  0  0  0  0
  -19.4490   28.2680   11.7330 C   0  0  0  0  0  0  0  0  0  0  0  0
  -18.2570   27.6260   11.4690 C   0  0  0  0  0  0  0  0  0  0  0  0
  -17.7910   27.4980   10.2220 F   0  0  0  0  0  0  0  0  0  0  0  0
  -17.5870   27.1320   12.5700 C   0  0  0  0  0  0  0  0  0  0  0  0
  -16.3280   26.4400   12.4340 C   0  0  0  0  0  0  0  0  0  0  0  0
  -16.2960   25.0470   12.5260 C   0  0  0  0  0  0  0  0  0  0  0  0
  -15.0910   24.3440   12.4020 C   0  0  0  0  0  0  0  0  0  0  0  0
  -15.0760   23.0070   12.4910 F   0  0  0  0  0  0  0  0  0  0  0  0
  -13.9100   25.0710   12.1820 C   0  0  0  0  0  0  0  0  0  0  0  0
  -12.6150   24.6290   12.0260 N   0  0  0  0  0  0  0  0  0  0  0  0
  -11.9030   25.7190   11.8490 C   0  0  0  0  0  0  0  0  0  0  0  0
  -10.4420   25.7720   11.6340 C   0  0  0  0  0  0  0  0  0  0  0  0
  -12.6750   26.8460   11.8820 N   0  0  0  0  0  0  0  0  0  0  0  0
  -12.2110   28.2060   11.7210 C   0  0  0  0  0  0  0  0  0  0  0  0
  -12.0010   28.5590   10.2470 C   0  0  0  0  0  0  0  0  0  0  0  0
  -10.9370   28.4650   12.5310 C   0  0  0  0  0  0  0  0  0  0  0  0
  -13.9740   26.4580   12.0960 C   0  0  0  0  0  0  0  0  0  0  0  0
  -15.1610   27.1800   12.2160 C   0  0  0  0  0  0  0  0  0  0  0  0
  -18.0380   27.2500   13.8360 N   0  0  0  0  0  0  0  0  0  0  0  0
  -18.0740   28.5970   16.9040 N   0  0  0  0  0  0  0  0  0  0  0  0
  -17.5560   28.3630   18.1310 C   0  0  0  0  0  0  0  0  0  0  0  0
  -15.3570   26.1380   21.0380 C   0  0  0  0  0  0  0  0  0  0  0  0
  -13.8280   26.1930   20.9730 C   0  0  0  0  0  0  0  0  0  0  0  0
  -11.4173   28.5259   23.2774 H   0  0  0  0  0  0  0  0  0  0  0  0
  -10.2729   28.8769   21.9381 H   0  0  0  0  0  0  0  0  0  0  0  0
  -11.9096   29.6171   21.9381 H   0  0  0  0  0  0  0  0  0  0  0  0
  -11.5582   27.6105   20.3731 H   0  0  0  0  0  0  0  0  0  0  0  0
  -11.4664   26.6076   21.8751 H   0  0  0  0  0  0  0  0  0  0  0  0
  -13.5782   29.5411   21.1844 H   0  0  0  0  0  0  0  0  0  0  0  0
  -13.6113   28.5221   19.6935 H   0  0  0  0  0  0  0  0  0  0  0  0
  -15.7754   28.6547   21.8554 H   0  0  0  0  0  0  0  0  0  0  0  0
  -15.8618   29.3484   20.1892 H   0  0  0  0  0  0  0  0  0  0  0  0
  -17.7159   26.2214   20.7510 H   0  0  0  0  0  0  0  0  0  0  0  0
  -17.7533   28.0146   21.0216 H   0  0  0  0  0  0  0  0  0  0  0  0
  -19.5417   25.8690   19.2666 H   0  0  0  0  0  0  0  0  0  0  0  0
  -20.5496   26.2608   17.0004 H   0  0  0  0  0  0  0  0  0  0  0  0
  -20.6800   28.3480   15.2870 H   0  0  0  0  0  0  0  0  0  0  0  0
  -20.0163   28.6779   10.8844 H   0  0  0  0  0  0  0  0  0  0  0  0
  -17.2309   24.4937   12.6984 H   0  0  0  0  0  0  0  0  0  0  0  0
   -9.9287   25.7906   12.6067 H   0  0  0  0  0  0  0  0  0  0  0  0
  -10.1223   24.8849   11.0676 H   0  0  0  0  0  0  0  0  0  0  0  0
  -10.1874   26.6800   11.0676 H   0  0  0  0  0  0  0  0  0  0  0  0
  -12.9998   28.8642   12.1143 H   0  0  0  0  0  0  0  0  0  0  0  0
  -11.4399   29.5022   10.1722 H   0  0  0  0  0  0  0  0  0  0  0  0
  -11.4342   27.7551    9.7546 H   0  0  0  0  0  0  0  0  0  0  0  0
  -12.9779   28.6735    9.7546 H   0  0  0  0  0  0  0  0  0  0  0  0
  -11.1695   28.4177   13.6051 H   0  0  0  0  0  0  0  0  0  0  0  0
  -10.1844   27.7015   12.2848 H   0  0  0  0  0  0  0  0  0  0  0  0
  -10.5422   29.4618   12.2848 H   0  0  0  0  0  0  0  0  0  0  0  0
  -15.1788   28.2774   12.1428 H   0  0  0  0  0  0  0  0  0  0  0  0
  -16.6963   28.9694   18.4524 H   0  0  0  0  0  0  0  0  0  0  0  0
  -15.6752   26.1939   22.0895 H   0  0  0  0  0  0  0  0  0  0  0  0
  -15.6947   25.1945   20.5844 H   0  0  0  0  0  0  0  0  0  0  0  0
  -13.4117   25.3742   21.5782 H   0  0  0  0  0  0  0  0  0  0  0  0
  -13.5161   26.0904   19.9232 H   0  0  0  0  0  0  0  0  0  0  0  0
  1  2  1  0
  2  3  1  0
  3  4  1  0
  4  5  1  0
  5  6  1  0
  6  7  1  0
  7  8  1  0
  8  9  2  0
  9 10  1  0
 10 11  2  0
 11 12  1  0
 12 13  1  0
 13 14  2  0
 14 15  1  0
 15 16  2  0
 16 17  1  0
 16 18  1  0
 18 19  1  0
 19 20  2  0
 20 21  1  0
 21 22  1  0
 21 23  2  0
 23 24  1  0
 24 25  2  0
 25 26  1  0
 25 27  1  0
 27 28  1  0
 28 29  1  0
 28 30  1  0
 27 31  1  0
 31 32  2  0
 18 33  2  0
 11 34  1  0
 34 35  2  0
  6 36  1  0
 36 37  1  0
 37  3  1  0
 35  8  1  0
 33 13  1  0
 32 19  1  0
 31 23  1  0
  1 38  1  0
  1 39  1  0
  1 40  1  0
  2 41  1  0
  2 42  1  0
  4 43  1  0
  4 44  1  0
  5 45  1  0
  5 46  1  0
  7 47  1  0
  7 48  1  0
  9 49  1  0
 10 50  1  0
 12 51  1  0
 15 52  1  0
 20 53  1  0
 26 54  1  0
 26 55  1  0
 26 56  1  0
 28 57  1  0
 29 58  1  0
 29 59  1  0
 29 60  1  0
 30 61  1  0
 30 62  1  0
 30 63  1  0
 32 64  1  0
 35 65  1  0
 36 66  1  0
 36 67  1  0
 37 68  1  0
 37 69  1  0
M  END
>  <meeko>  (2) 
{"is_sidechain": [false], "free_energy": -4.798, "intermolecular_energy": -6.927, "internal_energy": -0.378}

$$$$
6QH4_Abemaciclib_94NAMRd_out
     RDKit          3D

 69 73  0  0  0  0  0  0  0  0999 V2000
  -12.9910   27.1510   23.6880 C   0  0  0  0  0  0  0  0  0  0  0  0
  -13.5290   28.0970   22.6280 C   0  0  0  0  0  0  0  0  0  0  0  0
  -14.8280   27.6470   22.1300 N   0  0  0  0  0  0  0  0  0  0  0  0
  -15.8710   28.6360   22.4270 C   0  0  0  0  0  0  0  0  0  0  0  0
  -17.2320   28.1660   21.9020 C   0  0  0  0  0  0  0  0  0  0  0  0
  -17.1740   27.8990   20.4600 N   0  0  0  0  0  0  0  0  0  0  0  0
  -18.4720   27.4490   19.9630 C   0  0  0  0  0  0  0  0  0  0  0  0
  -18.4960   27.3580   18.4610 C   0  0  0  0  0  0  0  0  0  0  0  0
  -19.4110   26.5390   17.8060 C   0  0  0  0  0  0  0  0  0  0  0  0
  -19.4100   26.4780   16.4170 C   0  0  0  0  0  0  0  0  0  0  0  0
  -18.4810   27.2470   15.7340 C   0  0  0  0  0  0  0  0  0  0  0  0
  -18.4940   27.1740   14.3190 N   0  0  0  0  0  0  0  0  0  0  0  0
  -17.5870   26.6400   13.3900 C   0  0  0  0  0  0  0  0  0  0  0  0
  -16.7630   25.6750   13.8420 N   0  0  0  0  0  0  0  0  0  0  0  0
  -15.9050   25.1830   12.9240 C   0  0  0  0  0  0  0  0  0  0  0  0
  -15.8530   25.6150   11.6150 C   0  0  0  0  0  0  0  0  0  0  0  0
  -14.9840   25.0960   10.7400 F   0  0  0  0  0  0  0  0  0  0  0  0
  -16.7500   26.6080   11.2760 C   0  0  0  0  0  0  0  0  0  0  0  0
  -16.8010   27.1480    9.9400 C   0  0  0  0  0  0  0  0  0  0  0  0
  -18.0030   27.6730    9.4570 C   0  0  0  0  0  0  0  0  0  0  0  0
  -18.0890   28.2020    8.1630 C   0  0  0  0  0  0  0  0  0  0  0  0
  -19.2470   28.7030    7.7140 F   0  0  0  0  0  0  0  0  0  0  0  0
  -16.9390   28.1950    7.3570 C   0  0  0  0  0  0  0  0  0  0  0  0
  -16.7580   28.6480    6.0690 N   0  0  0  0  0  0  0  0  0  0  0  0
  -15.4960   28.4020    5.7950 C   0  0  0  0  0  0  0  0  0  0  0  0
  -14.8120   28.7090    4.5230 C   0  0  0  0  0  0  0  0  0  0  0  0
  -14.8510   27.8110    6.8460 N   0  0  0  0  0  0  0  0  0  0  0  0
  -13.4630   27.4090    6.8790 C   0  0  0  0  0  0  0  0  0  0  0  0
  -13.3100   25.8950    6.7110 C   0  0  0  0  0  0  0  0  0  0  0  0
  -12.7680   27.8890    8.1570 C   0  0  0  0  0  0  0  0  0  0  0  0
  -15.7570   27.6650    7.8660 C   0  0  0  0  0  0  0  0  0  0  0  0
  -15.6470   27.1330    9.1500 C   0  0  0  0  0  0  0  0  0  0  0  0
  -17.6340   27.1440   12.1420 N   0  0  0  0  0  0  0  0  0  0  0  0
  -17.5770   28.0530   16.3350 N   0  0  0  0  0  0  0  0  0  0  0  0
  -17.6080   28.0880   17.6860 C   0  0  0  0  0  0  0  0  0  0  0  0
  -16.1300   26.9110   20.1630 C   0  0  0  0  0  0  0  0  0  0  0  0
  -14.7690   27.3810   20.6870 C   0  0  0  0  0  0  0  0  0  0  0  0
  -13.2189   27.5517   24.6868 H   0  0  0  0  0  0  0  0  0  0  0  0
  -13.4630   26.1642   23.5724 H   0  0  0  0  0  0  0  0  0  0  0  0
  -11.9016   27.0522   23.5724 H   0  0  0  0  0  0  0  0  0  0  0  0
  -13.6399   29.1003   23.0651 H   0  0  0  0  0  0  0  0  0  0  0  0
  -12.8207   28.1175   21.7866 H   0  0  0  0  0  0  0  0  0  0  0  0
  -15.9339   28.7778   23.5160 H   0  0  0  0  0  0  0  0  0  0  0  0
  -15.6101   29.5831   21.9320 H   0  0  0  0  0  0  0  0  0  0  0  0
  -17.5218   27.2441   22.4275 H   0  0  0  0  0  0  0  0  0  0  0  0
  -17.9714   28.9602   22.0826 H   0  0  0  0  0  0  0  0  0  0  0  0
  -18.6890   26.4558   20.3831 H   0  0  0  0  0  0  0  0  0  0  0  0
  -19.2295   28.1841   20.2725 H   0  0  0  0  0  0  0  0  0  0  0  0
  -20.1317   25.9426   18.3847 H   0  0  0  0  0  0  0  0  0  0  0  0
  -20.1243   25.8392   15.8769 H   0  0  0  0  0  0  0  0  0  0  0  0
  -19.3130   27.5840   13.8800 H   0  0  0  0  0  0  0  0  0  0  0  0
  -15.2073   24.3924   13.2374 H   0  0  0  0  0  0  0  0  0  0  0  0
  -18.8939   27.6707   10.1022 H   0  0  0  0  0  0  0  0  0  0  0  0
  -13.8270   29.1511    4.7337 H   0  0  0  0  0  0  0  0  0  0  0  0
  -14.6819   27.7829    3.9438 H   0  0  0  0  0  0  0  0  0  0  0  0
  -15.4175   29.4217    3.9438 H   0  0  0  0  0  0  0  0  0  0  0  0
  -12.9677   27.8931    6.0244 H   0  0  0  0  0  0  0  0  0  0  0  0
  -13.2619   25.4192    7.7016 H   0  0  0  0  0  0  0  0  0  0  0  0
  -14.1727   25.4987    6.1553 H   0  0  0  0  0  0  0  0  0  0  0  0
  -12.3855   25.6793    6.1553 H   0  0  0  0  0  0  0  0  0  0  0  0
  -13.3136   27.5122    9.0347 H   0  0  0  0  0  0  0  0  0  0  0  0
  -11.7353   27.5107    8.1770 H   0  0  0  0  0  0  0  0  0  0  0  0
  -12.7561   28.9888    8.1770 H   0  0  0  0  0  0  0  0  0  0  0  0
  -14.6980   26.7212    9.5238 H   0  0  0  0  0  0  0  0  0  0  0  0
  -16.8840   28.7356   18.2023 H   0  0  0  0  0  0  0  0  0  0  0  0
  -16.3906   25.9561   20.6428 H   0  0  0  0  0  0  0  0  0  0  0  0
  -16.0633   26.7867   19.0721 H   0  0  0  0  0  0  0  0  0  0  0  0
  -14.0193   26.5992   20.4950 H   0  0  0  0  0  0  0  0  0  0  0  0
  -14.4943   28.3114   20.1685 H   0  0  0  0  0  0  0  0  0  0  0  0
  1  2  1  0
  2  3  1  0
  3  4  1  0
  4  5  1  0
  5  6  1  0
  6  7  1  0
  7  8  1  0
  8  9  2  0
  9 10  1  0
 10 11  2  0
 11 12  1  0
 12 13  1  0
 13 14  2  0
 14 15  1  0
 15 16  2  0
 16 17  1  0
 16 18  1  0
 18 19  1  0
 19 20  2  0
 20 21  1  0
 21 22  1  0
 21 23  2  0
 23 24  1  0
 24 25  2  0
 25 26  1  0
 25 27  1  0
 27 28  1  0
 28 29  1  0
 28 30  1  0
 27 31  1  0
 31 32  2  0
 18 33  2  0
 11 34  1  0
 34 35  2  0
  6 36  1  0
 36 37  1  0
 37  3  1  0
 35  8  1  0
 33 13  1  0
 32 19  1  0
 31 23  1  0
  1 38  1  0
  1 39  1  0
  1 40  1  0
  2 41  1  0
  2 42  1  0
  4 43  1  0
  4 44  1  0
  5 45  1  0
  5 46  1  0
  7 47  1  0
  7 48  1  0
  9 49  1  0
 10 50  1  0
 12 51  1  0
 15 52  1  0
 20 53  1  0
 26 54  1  0
 26 55  1  0
 26 56  1  0
 28 57  1  0
 29 58  1  0
 29 59  1  0
 29 60  1  0
 30 61  1  0
 30 62  1  0
 30 63  1  0
 32 64  1  0
 35 65  1  0
 36 66  1  0
 36 67  1  0
 37 68  1  0
 37 69  1  0
M  END
>  <meeko>  (3) 
{"is_sidechain": [false], "free_energy": -4.299, "intermolecular_energy": -6.482, "internal_energy": -0.12}

$$$$
6QH4_Abemaciclib_94NAMRd_out
     RDKit          3D

 69 73  0  0  0  0  0  0  0  0999 V2000
  -14.0560   27.8160   21.8030 C   0  0  0  0  0  0  0  0  0  0  0  0
  -15.1790   28.6860   21.2650 C   0  0  0  0  0  0  0  0  0  0  0  0
  -16.0310   27.9360   20.3430 N   0  0  0  0  0  0  0  0  0  0  0  0
  -17.3230   27.6230   20.9670 C   0  0  0  0  0  0  0  0  0  0  0  0
  -18.2180   26.8390   20.0000 C   0  0  0  0  0  0  0  0  0  0  0  0
  -18.4190   27.5840   18.7510 N   0  0  0  0  0  0  0  0  0  0  0  0
  -19.2700   26.8340   17.8310 C   0  0  0  0  0  0  0  0  0  0  0  0
  -19.1570   27.3460   16.4200 C   0  0  0  0  0  0  0  0  0  0  0  0
  -20.1620   28.1280   15.8580 C   0  0  0  0  0  0  0  0  0  0  0  0
  -20.0280   28.5890   14.5530 C   0  0  0  0  0  0  0  0  0  0  0  0
  -18.8810   28.2410   13.8560 C   0  0  0  0  0  0  0  0  0  0  0  0
  -18.7600   28.7180   12.5280 N   0  0  0  0  0  0  0  0  0  0  0  0
  -17.9940   28.2870   11.4330 C   0  0  0  0  0  0  0  0  0  0  0  0
  -16.6570   28.3930   11.5560 N   0  0  0  0  0  0  0  0  0  0  0  0
  -15.9510   27.9690   10.4870 C   0  0  0  0  0  0  0  0  0  0  0  0
  -16.5270   27.4610    9.3410 C   0  0  0  0  0  0  0  0  0  0  0  0
  -15.7850   27.0530    8.3060 F   0  0  0  0  0  0  0  0  0  0  0  0
  -17.9060   27.4060    9.3390 C   0  0  0  0  0  0  0  0  0  0  0  0
  -18.6340   26.8950    8.2030 C   0  0  0  0  0  0  0  0  0  0  0  0
  -19.2110   27.7890    7.2980 C   0  0  0  0  0  0  0  0  0  0  0  0
  -19.9270   27.3280    6.1860 C   0  0  0  0  0  0  0  0  0  0  0  0
  -20.4730   28.1970    5.3260 F   0  0  0  0  0  0  0  0  0  0  0  0
  -20.0540   25.9420    5.9980 C   0  0  0  0  0  0  0  0  0  0  0  0
  -20.6960   25.2390    5.0030 N   0  0  0  0  0  0  0  0  0  0  0  0
  -20.5080   23.9730    5.3040 C   0  0  0  0  0  0  0  0  0  0  0  0
  -21.0080   22.8180    4.5330 C   0  0  0  0  0  0  0  0  0  0  0  0
  -19.7750   23.8230    6.4480 N   0  0  0  0  0  0  0  0  0  0  0  0
  -19.3900   22.5700    7.0580 C   0  0  0  0  0  0  0  0  0  0  0  0
  -18.6510   21.6660    6.0690 C   0  0  0  0  0  0  0  0  0  0  0  0
  -20.5940   21.8460    7.6660 C   0  0  0  0  0  0  0  0  0  0  0  0
  -19.4690   25.0760    6.9170 C   0  0  0  0  0  0  0  0  0  0  0  0
  -18.7510   25.5120    8.0310 C   0  0  0  0  0  0  0  0  0  0  0  0
  -18.6730   27.8110   10.3720 N   0  0  0  0  0  0  0  0  0  0  0  0
  -17.8860   27.4820   14.3680 N   0  0  0  0  0  0  0  0  0  0  0  0
  -18.0500   27.0540   15.6390 C   0  0  0  0  0  0  0  0  0  0  0  0
  -17.1270   27.8990   18.1290 C   0  0  0  0  0  0  0  0  0  0  0  0
  -16.2330   28.6830   19.0940 C   0  0  0  0  0  0  0  0  0  0  0  0
  -14.0753   27.8310   22.9027 H   0  0  0  0  0  0  0  0  0  0  0  0
  -14.1898   26.7835   21.4479 H   0  0  0  0  0  0  0  0  0  0  0  0
  -13.0897   28.2035   21.4479 H   0  0  0  0  0  0  0  0  0  0  0  0
  -15.7895   29.0454   22.1065 H   0  0  0  0  0  0  0  0  0  0  0  0
  -14.7348   29.5321   20.7202 H   0  0  0  0  0  0  0  0  0  0  0  0
  -17.1507   27.0184   21.8697 H   0  0  0  0  0  0  0  0  0  0  0  0
  -17.8263   28.5656   21.2283 H   0  0  0  0  0  0  0  0  0  0  0  0
  -17.7422   25.8740   19.7711 H   0  0  0  0  0  0  0  0  0  0  0  0
  -19.1968   26.6815   20.4766 H   0  0  0  0  0  0  0  0  0  0  0  0
  -18.9697   25.7760   17.8508 H   0  0  0  0  0  0  0  0  0  0  0  0
  -20.3140   26.9553   18.1557 H   0  0  0  0  0  0  0  0  0  0  0  0
  -21.0583   28.3802   16.4437 H   0  0  0  0  0  0  0  0  0  0  0  0
  -20.8076   29.2104   14.0881 H   0  0  0  0  0  0  0  0  0  0  0  0
  -19.3330   29.5280   12.3130 H   0  0  0  0  0  0  0  0  0  0  0  0
  -14.8537   28.0320   10.5319 H   0  0  0  0  0  0  0  0  0  0  0  0
  -19.1014   28.8713    7.4611 H   0  0  0  0  0  0  0  0  0  0  0  0
  -21.3474   22.0339    5.2258 H   0  0  0  0  0  0  0  0  0  0  0  0
  -21.8488   23.1365    3.8993 H   0  0  0  0  0  0  0  0  0  0  0  0
  -20.2004   22.4228    3.8993 H   0  0  0  0  0  0  0  0  0  0  0  0
  -18.6952   22.8103    7.8762 H   0  0  0  0  0  0  0  0  0  0  0  0
  -18.0497   20.9304    6.6234 H   0  0  0  0  0  0  0  0  0  0  0  0
  -19.3814   21.1404    5.4363 H   0  0  0  0  0  0  0  0  0  0  0  0
  -17.9907   22.2773    5.4363 H   0  0  0  0  0  0  0  0  0  0  0  0
  -20.5294   21.8849    8.7634 H   0  0  0  0  0  0  0  0  0  0  0  0
  -21.5217   22.3362    7.3357 H   0  0  0  0  0  0  0  0  0  0  0  0
  -20.5960   20.7968    7.3357 H   0  0  0  0  0  0  0  0  0  0  0  0
  -18.2989   24.8024    8.7396 H   0  0  0  0  0  0  0  0  0  0  0  0
  -17.2554   26.4353   16.0814 H   0  0  0  0  0  0  0  0  0  0  0  0
  -16.6226   26.9616   17.8517 H   0  0  0  0  0  0  0  0  0  0  0  0
  -17.3076   28.5164   17.2367 H   0  0  0  0  0  0  0  0  0  0  0  0
  -15.2572   28.8602   18.6181 H   0  0  0  0  0  0  0  0  0  0  0  0
  -16.7233   29.6388   19.3306 H   0  0  0  0  0  0  0  0  0  0  0  0
  1  2  1  0
  2  3  1  0
  3  4  1  0
  4  5  1  0
  5  6  1  0
  6  7  1  0
  7  8  1  0
  8  9  2  0
  9 10  1  0
 10 11  2  0
 11 12  1  0
 12 13  1  0
 13 14  2  0
 14 15  1  0
 15 16  2  0
 16 17  1  0
 16 18  1  0
 18 19  1  0
 19 20  2  0
 20 21  1  0
 21 22  1  0
 21 23  2  0
 23 24  1  0
 24 25  2  0
 25 26  1  0
 25 27  1  0
 27 28  1  0
 28 29  1  0
 28 30  1  0
 27 31  1  0
 31 32  2  0
 18 33  2  0
 11 34  1  0
 34 35  2  0
  6 36  1  0
 36 37  1  0
 37  3  1  0
 35  8  1  0
 33 13  1  0
 32 19  1  0
 31 23  1  0
  1 38  1  0
  1 39  1  0
  1 40  1  0
  2 41  1  0
  2 42  1  0
  4 43  1  0
  4 44  1  0
  5 45  1  0
  5 46  1  0
  7 47  1  0
  7 48  1  0
  9 49  1  0
 10 50  1  0
 12 51  1  0
 15 52  1  0
 20 53  1  0
 26 54  1  0
 26 55  1  0
 26 56  1  0
 28 57  1  0
 29 58  1  0
 29 59  1  0
 29 60  1  0
 30 61  1  0
 30 62  1  0
 30 63  1  0
 32 64  1  0
 35 65  1  0
 36 66  1  0
 36 67  1  0
 37 68  1  0
 37 69  1  0
M  END
>  <meeko>  (4) 
{"is_sidechain": [false], "free_energy": -3.996, "intermolecular_energy": -6.576, "internal_energy": 0.4}

$$$$
6QH4_Abemaciclib_94NAMRd_out
     RDKit          3D

 69 73  0  0  0  0  0  0  0  0999 V2000
  -12.6970   27.0660   22.6170 C   0  0  0  0  0  0  0  0  0  0  0  0
  -13.7220   28.1860   22.5920 C   0  0  0  0  0  0  0  0  0  0  0  0
  -14.9930   27.7250   22.0360 N   0  0  0  0  0  0  0  0  0  0  0  0
  -16.0900   28.6130   22.4380 C   0  0  0  0  0  0  0  0  0  0  0  0
  -17.4230   28.1320   21.8530 C   0  0  0  0  0  0  0  0  0  0  0  0
  -17.3490   28.0370   20.3900 N   0  0  0  0  0  0  0  0  0  0  0  0
  -18.6190   27.5750   19.8350 C   0  0  0  0  0  0  0  0  0  0  0  0
  -18.5590   27.4360   18.3370 C   0  0  0  0  0  0  0  0  0  0  0  0
  -19.5750   26.7960   17.6350 C   0  0  0  0  0  0  0  0  0  0  0  0
  -19.4930   26.6850   16.2510 C   0  0  0  0  0  0  0  0  0  0  0  0
  -18.3820   27.2250   15.6220 C   0  0  0  0  0  0  0  0  0  0  0  0
  -18.3130   27.1040   14.2120 N   0  0  0  0  0  0  0  0  0  0  0  0
  -17.3280   26.5920   13.3530 C   0  0  0  0  0  0  0  0  0  0  0  0
  -16.5210   25.6420   13.8620 N   0  0  0  0  0  0  0  0  0  0  0  0
  -15.5870   25.1710   13.0100 C   0  0  0  0  0  0  0  0  0  0  0  0
  -15.4440   25.6090   11.7100 C   0  0  0  0  0  0  0  0  0  0  0  0
  -14.5020   25.1120   10.9020 F   0  0  0  0  0  0  0  0  0  0  0  0
  -16.3330   26.5860   11.3080 C   0  0  0  0  0  0  0  0  0  0  0  0
  -16.2940   27.1310    9.9730 C   0  0  0  0  0  0  0  0  0  0  0  0
  -15.1000   27.6690    9.4840 C   0  0  0  0  0  0  0  0  0  0  0  0
  -15.0280   28.2080    8.1940 C   0  0  0  0  0  0  0  0  0  0  0  0
  -13.8760   28.7180    7.7390 F   0  0  0  0  0  0  0  0  0  0  0  0
  -16.1840   28.2000    7.3970 C   0  0  0  0  0  0  0  0  0  0  0  0
  -16.3780   28.6610    6.1140 N   0  0  0  0  0  0  0  0  0  0  0  0
  -17.6410   28.4080    5.8490 C   0  0  0  0  0  0  0  0  0  0  0  0
  -18.3370   28.7180    4.5840 C   0  0  0  0  0  0  0  0  0  0  0  0
  -18.2740   27.8050    6.9000 N   0  0  0  0  0  0  0  0  0  0  0  0
  -19.6590   27.3940    6.9410 C   0  0  0  0  0  0  0  0  0  0  0  0
  -20.4560   28.2030    7.9670 C   0  0  0  0  0  0  0  0  0  0  0  0
  -19.7930   25.8920    7.2080 C   0  0  0  0  0  0  0  0  0  0  0  0
  -17.3590   27.6590    7.9120 C   0  0  0  0  0  0  0  0  0  0  0  0
  -17.4550   27.1150    9.1930 C   0  0  0  0  0  0  0  0  0  0  0  0
  -17.2910   27.1010   12.1060 N   0  0  0  0  0  0  0  0  0  0  0  0
  -17.3750   27.8520   16.2710 N   0  0  0  0  0  0  0  0  0  0  0  0
  -17.4900   27.9420   17.6150 C   0  0  0  0  0  0  0  0  0  0  0  0
  -16.2510   27.1500   19.9880 C   0  0  0  0  0  0  0  0  0  0  0  0
  -14.9190   27.6310   20.5720 C   0  0  0  0  0  0  0  0  0  0  0  0
  -12.4610   26.8081   23.6600 H   0  0  0  0  0  0  0  0  0  0  0  0
  -13.1063   26.1829   22.1046 H   0  0  0  0  0  0  0  0  0  0  0  0
  -11.7812   27.3956   22.1046 H   0  0  0  0  0  0  0  0  0  0  0  0
  -13.8880   28.5439   23.6188 H   0  0  0  0  0  0  0  0  0  0  0  0
  -13.3370   28.9974   21.9568 H   0  0  0  0  0  0  0  0  0  0  0  0
  -16.1611   28.6240   23.5356 H   0  0  0  0  0  0  0  0  0  0  0  0
  -15.8825   29.6239   22.0572 H   0  0  0  0  0  0  0  0  0  0  0  0
  -17.6612   27.1410   22.2667 H   0  0  0  0  0  0  0  0  0  0  0  0
  -18.2058   28.8576   22.1190 H   0  0  0  0  0  0  0  0  0  0  0  0
  -18.8639   26.5964   20.2735 H   0  0  0  0  0  0  0  0  0  0  0  0
  -19.3892   28.3219   20.0777 H   0  0  0  0  0  0  0  0  0  0  0  0
  -20.4398   26.3794   18.1722 H   0  0  0  0  0  0  0  0  0  0  0  0
  -20.2846   26.1846   15.6739 H   0  0  0  0  0  0  0  0  0  0  0  0
  -19.1270   27.4520   13.7150 H   0  0  0  0  0  0  0  0  0  0  0  0
  -14.8998   24.3926   13.3731 H   0  0  0  0  0  0  0  0  0  0  0  0
  -14.2040   27.6688   10.1221 H   0  0  0  0  0  0  0  0  0  0  0  0
  -19.3213   29.1564    4.8050 H   0  0  0  0  0  0  0  0  0  0  0  0
  -17.7386   29.4347    4.0024 H   0  0  0  0  0  0  0  0  0  0  0  0
  -18.4695   27.7938    4.0024 H   0  0  0  0  0  0  0  0  0  0  0  0
  -20.0850   27.5982    5.9476 H   0  0  0  0  0  0  0  0  0  0  0  0
  -20.1590   27.9015    8.9823 H   0  0  0  0  0  0  0  0  0  0  0  0
  -20.2511   29.2748    7.8280 H   0  0  0  0  0  0  0  0  0  0  0  0
  -21.5307   28.0141    7.8280 H   0  0  0  0  0  0  0  0  0  0  0  0
  -19.8090   25.7125    8.2931 H   0  0  0  0  0  0  0  0  0  0  0  0
  -20.7277   25.5221    6.7613 H   0  0  0  0  0  0  0  0  0  0  0  0
  -18.9385   25.3625    6.7613 H   0  0  0  0  0  0  0  0  0  0  0  0
  -18.3981   26.6938    9.5714 H   0  0  0  0  0  0  0  0  0  0  0  0
  -16.6857   28.4479   18.1693 H   0  0  0  0  0  0  0  0  0  0  0  0
  -16.4577   26.1329   20.3522 H   0  0  0  0  0  0  0  0  0  0  0  0
  -16.1769   27.1570   18.8905 H   0  0  0  0  0  0  0  0  0  0  0  0
  -14.1268   26.9194   20.2962 H   0  0  0  0  0  0  0  0  0  0  0  0
  -14.6968   28.6290   20.1662 H   0  0  0  0  0  0  0  0  0  0  0  0
  1  2  1  0
  2  3  1  0
  3  4  1  0
  4  5  1  0
  5  6  1  0
  6  7  1  0
  7  8  1  0
  8  9  2  0
  9 10  1  0
 10 11  2  0
 11 12  1  0
 12 13  1  0
 13 14  2  0
 14 15  1  0
 15 16  2  0
 16 17  1  0
 16 18  1  0
 18 19  1  0
 19 20  2  0
 20 21  1  0
 21 22  1  0
 21 23  2  0
 23 24  1  0
 24 25  2  0
 25 26  1  0
 25 27  1  0
 27 28  1  0
 28 29  1  0
 28 30  1  0
 27 31  1  0
 31 32  2  0
 18 33  2  0
 11 34  1  0
 34 35  2  0
  6 36  1  0
 36 37  1  0
 37  3  1  0
 35  8  1  0
 33 13  1  0
 32 19  1  0
 31 23  1  0
  1 38  1  0
  1 39  1  0
  1 40  1  0
  2 41  1  0
  2 42  1  0
  4 43  1  0
  4 44  1  0
  5 45  1  0
  5 46  1  0
  7 47  1  0
  7 48  1  0
  9 49  1  0
 10 50  1  0
 12 51  1  0
 15 52  1  0
 20 53  1  0
 26 54  1  0
 26 55  1  0
 26 56  1  0
 28 57  1  0
 29 58  1  0
 29 59  1  0
 29 60  1  0
 30 61  1  0
 30 62  1  0
 30 63  1  0
 32 64  1  0
 35 65  1  0
 36 66  1  0
 36 67  1  0
 37 68  1  0
 37 69  1  0
M  END
>  <meeko>  (5) 
{"is_sidechain": [false], "free_energy": -3.901, "intermolecular_energy": -6.011, "internal_energy": -0.031}

$$$$
6QH4_Abemaciclib_94NAMRd_out
     RDKit          3D

 69 73  0  0  0  0  0  0  0  0999 V2000
  -12.9540   26.5190   21.5610 C   0  0  0  0  0  0  0  0  0  0  0  0
  -13.8900   27.4040   22.3660 C   0  0  0  0  0  0  0  0  0  0  0  0
  -15.2390   27.3950   21.8020 N   0  0  0  0  0  0  0  0  0  0  0  0
  -15.5910   28.7180   21.2720 C   0  0  0  0  0  0  0  0  0  0  0  0
  -17.0050   28.7090   20.6780 C   0  0  0  0  0  0  0  0  0  0  0  0
  -17.1250   27.6870   19.6300 N   0  0  0  0  0  0  0  0  0  0  0  0
  -18.4730   27.6780   19.0680 C   0  0  0  0  0  0  0  0  0  0  0  0
  -18.4680   27.3280   17.6030 C   0  0  0  0  0  0  0  0  0  0  0  0
  -19.6570   27.1490   16.9040 C   0  0  0  0  0  0  0  0  0  0  0  0
  -19.6190   26.8290   15.5510 C   0  0  0  0  0  0  0  0  0  0  0  0
  -18.3770   26.6990   14.9500 C   0  0  0  0  0  0  0  0  0  0  0  0
  -18.3560   26.3730   13.5700 N   0  0  0  0  0  0  0  0  0  0  0  0
  -17.6720   26.9270   12.4780 C   0  0  0  0  0  0  0  0  0  0  0  0
  -17.3000   28.2170   12.5920 N   0  0  0  0  0  0  0  0  0  0  0  0
  -16.6450   28.7180   11.5250 C   0  0  0  0  0  0  0  0  0  0  0  0
  -16.3620   27.9900   10.3880 C   0  0  0  0  0  0  0  0  0  0  0  0
  -15.7080   28.5300    9.3540 F   0  0  0  0  0  0  0  0  0  0  0  0
  -16.7960   26.6790   10.3940 C   0  0  0  0  0  0  0  0  0  0  0  0
  -16.5640   25.8070    9.2680 C   0  0  0  0  0  0  0  0  0  0  0  0
  -15.2620   25.6330    8.7910 C   0  0  0  0  0  0  0  0  0  0  0  0
  -15.0010   24.7970    7.6980 C   0  0  0  0  0  0  0  0  0  0  0  0
  -13.7480   24.6380    7.2530 F   0  0  0  0  0  0  0  0  0  0  0  0
  -16.0780   24.1330    7.0890 C   0  0  0  0  0  0  0  0  0  0  0  0
  -16.0930   23.2690    6.0170 N   0  0  0  0  0  0  0  0  0  0  0  0
  -17.3560   22.9410    5.8620 C   0  0  0  0  0  0  0  0  0  0  0  0
  -17.8910   22.0260    4.8330 C   0  0  0  0  0  0  0  0  0  0  0  0
  -18.1610   23.5520    6.7820 N   0  0  0  0  0  0  0  0  0  0  0  0
  -19.5950   23.4100    6.8920 C   0  0  0  0  0  0  0  0  0  0  0  0
  -20.2340   24.6350    7.5510 C   0  0  0  0  0  0  0  0  0  0  0  0
  -19.9790   22.1280    7.6370 C   0  0  0  0  0  0  0  0  0  0  0  0
  -17.3630   24.3270    7.5860 C   0  0  0  0  0  0  0  0  0  0  0  0
  -17.6480   25.1540    8.6720 C   0  0  0  0  0  0  0  0  0  0  0  0
  -17.4560   26.1140   11.4260 N   0  0  0  0  0  0  0  0  0  0  0  0
  -17.2020   26.8640   15.5970 N   0  0  0  0  0  0  0  0  0  0  0  0
  -17.2780   27.1750   16.9100 C   0  0  0  0  0  0  0  0  0  0  0  0
  -16.7720   26.3650   20.1600 C   0  0  0  0  0  0  0  0  0  0  0  0
  -15.3590   26.3740   20.7530 C   0  0  0  0  0  0  0  0  0  0  0  0
  -12.3287   25.9278   22.2462 H   0  0  0  0  0  0  0  0  0  0  0  0
  -13.5448   25.8416   20.9269 H   0  0  0  0  0  0  0  0  0  0  0  0
  -12.3107   27.1468   20.9269 H   0  0  0  0  0  0  0  0  0  0  0  0
  -13.9312   27.0350   23.4014 H   0  0  0  0  0  0  0  0  0  0  0  0
  -13.5066   28.4346   22.3374 H   0  0  0  0  0  0  0  0  0  0  0  0
  -15.5468   29.4560   22.0865 H   0  0  0  0  0  0  0  0  0  0  0  0
  -14.8769   28.9807   20.4776 H   0  0  0  0  0  0  0  0  0  0  0  0
  -17.7301   28.4932   21.4766 H   0  0  0  0  0  0  0  0  0  0  0  0
  -17.2064   29.6947   20.2333 H   0  0  0  0  0  0  0  0  0  0  0  0
  -19.0789   26.9362   19.6089 H   0  0  0  0  0  0  0  0  0  0  0  0
  -18.8942   28.6884   19.1758 H   0  0  0  0  0  0  0  0  0  0  0  0
  -20.6228   27.2600   17.4187 H   0  0  0  0  0  0  0  0  0  0  0  0
  -20.5455   26.6837   14.9761 H   0  0  0  0  0  0  0  0  0  0  0  0
  -18.9450   25.5880   13.3100 H   0  0  0  0  0  0  0  0  0  0  0  0
  -16.3176   29.7674   11.5635 H   0  0  0  0  0  0  0  0  0  0  0  0
  -14.4302   26.1602    9.2810 H   0  0  0  0  0  0  0  0  0  0  0  0
  -18.3884   21.1753    5.3217 H   0  0  0  0  0  0  0  0  0  0  0  0
  -18.6168   22.5640    4.2055 H   0  0  0  0  0  0  0  0  0  0  0  0
  -17.0661   21.6574    4.2055 H   0  0  0  0  0  0  0  0  0  0  0  0
  -19.9897   23.3351    5.8680 H   0  0  0  0  0  0  0  0  0  0  0  0
  -20.1806   24.5326    8.6449 H   0  0  0  0  0  0  0  0  0  0  0  0
  -19.6940   25.5417    7.2408 H   0  0  0  0  0  0  0  0  0  0  0  0
  -21.2866   24.7110    7.2408 H   0  0  0  0  0  0  0  0  0  0  0  0
  -19.9262   22.3043    8.7215 H   0  0  0  0  0  0  0  0  0  0  0  0
  -21.0037   21.8372    7.3623 H   0  0  0  0  0  0  0  0  0  0  0  0
  -19.2829   21.3218    7.3623 H   0  0  0  0  0  0  0  0  0  0  0  0
  -18.6754   25.2864    9.0420 H   0  0  0  0  0  0  0  0  0  0  0  0
  -16.3372   27.3153   17.4625 H   0  0  0  0  0  0  0  0  0  0  0  0
  -17.4906   26.0881   20.9454 H   0  0  0  0  0  0  0  0  0  0  0  0
  -16.8034   25.6361   19.3368 H   0  0  0  0  0  0  0  0  0  0  0  0
  -15.1433   25.3858   21.1854 H   0  0  0  0  0  0  0  0  0  0  0  0
  -14.6423   26.6066   19.9516 H   0  0  0  0  0  0  0  0  0  0  0  0
  1  2  1  0
  2  3  1  0
  3  4  1  0
  4  5  1  0
  5  6  1  0
  6  7  1  0
  7  8  1  0
  8  9  2  0
  9 10  1  0
 10 11  2  0
 11 12  1  0
 12 13  1  0
 13 14  2  0
 14 15  1  0
 15 16  2  0
 16 17  1  0
 16 18  1  0
 18 19  1  0
 19 20  2  0
 20 21  1  0
 21 22  1  0
 21 23  2  0
 23 24  1  0
 24 25  2  0
 25 26  1  0
 25 27  1  0
 27 28  1  0
 28 29  1  0
 28 30  1  0
 27 31  1  0
 31 32  2  0
 18 33  2  0
 11 34  1  0
 34 35  2  0
  6 36  1  0
 36 37  1  0
 37  3  1  0
 35  8  1  0
 33 13  1  0
 32 19  1  0
 31 23  1  0
  1 38  1  0
  1 39  1  0
  1 40  1  0
  2 41  1  0
  2 42  1  0
  4 43  1  0
  4 44  1  0
  5 45  1  0
  5 46  1  0
  7 47  1  0
  7 48  1  0
  9 49  1  0
 10 50  1  0
 12 51  1  0
 15 52  1  0
 20 53  1  0
 26 54  1  0
 26 55  1  0
 26 56  1  0
 28 57  1  0
 29 58  1  0
 29 59  1  0
 29 60  1  0
 30 61  1  0
 30 62  1  0
 30 63  1  0
 32 64  1  0
 35 65  1  0
 36 66  1  0
 36 67  1  0
 37 68  1  0
 37 69  1  0
M  END
>  <meeko>  (6) 
{"is_sidechain": [false], "free_energy": -2.713, "intermolecular_energy": -4.217, "internal_energy": -0.15}

$$$$
