2REI_Afatinib_DIs38Xm_out
     RDKit          3D

 59 62  0  0  0  0  0  0  0  0999 V2000
   13.1850   15.5050   -2.9770 C   0  0  0  0  0  0  0  0  0  0  0  0
   13.1060   14.1510   -3.5300 N   0  0  0  0  0  0  0  0  0  0  0  0
   12.8550   13.1820   -2.4630 C   0  0  0  0  0  0  0  0  0  0  0  0
   12.0650   14.0730   -4.5490 C   0  0  0  0  0  0  0  0  0  0  0  0
   12.4320   13.1090   -5.6380 C   0  0  0  0  0  0  0  0  0  0  0  0
   11.8320   13.0930   -6.8360 C   0  0  0  0  0  0  0  0  0  0  0  0
   12.6330   12.9020   -8.0830 C   0  0  0  0  0  0  0  0  0  0  0  0
   12.8040   11.7880   -8.5650 O   0  0  0  0  0  0  0  0  0  0  0  0
   13.1210   14.1190   -8.5740 N   0  0  0  0  0  0  0  0  0  0  0  0
   13.9040   14.3360   -9.7110 C   0  0  0  0  0  0  0  0  0  0  0  0
   15.2270   13.9080   -9.7260 C   0  0  0  0  0  0  0  0  0  0  0  0
   16.0220   14.1220  -10.8650 C   0  0  0  0  0  0  0  0  0  0  0  0
   17.3520   13.7180  -10.9460 C   0  0  0  0  0  0  0  0  0  0  0  0
   17.9470   13.0620   -9.8400 N   0  0  0  0  0  0  0  0  0  0  0  0
   17.9240   11.7270   -9.4050 C   0  0  0  0  0  0  0  0  0  0  0  0
   17.7930   10.6940  -10.3320 C   0  0  0  0  0  0  0  0  0  0  0  0
   17.7700    9.3670   -9.9000 C   0  0  0  0  0  0  0  0  0  0  0  0
   17.8780    9.0750   -8.5400 C   0  0  0  0  0  0  0  0  0  0  0  0
   17.8540    7.7950   -8.1410 F   0  0  0  0  0  0  0  0  0  0  0  0
   18.0090   10.1090   -7.6130 C   0  0  0  0  0  0  0  0  0  0  0  0
   18.1420    9.7540   -5.9330 Cl  0  0  0  0  0  0  0  0  0  0  0  0
   18.0320   11.4340   -8.0450 C   0  0  0  0  0  0  0  0  0  0  0  0
   18.1320   13.9110  -12.0260 N   0  0  0  0  0  0  0  0  0  0  0  0
   17.5270   14.5360  -13.0490 C   0  0  0  0  0  0  0  0  0  0  0  0
   16.2510   14.9730  -13.0950 N   0  0  0  0  0  0  0  0  0  0  0  0
   15.5000   14.7640  -12.0000 C   0  0  0  0  0  0  0  0  0  0  0  0
   14.1720   15.1820  -11.9580 C   0  0  0  0  0  0  0  0  0  0  0  0
   13.3750   14.9740  -10.8280 C   0  0  0  0  0  0  0  0  0  0  0  0
   12.0820   15.4030  -10.8440 O   0  0  0  0  0  0  0  0  0  0  0  0
   11.3780   15.2880  -12.0750 C   0  0  1  0  0  0  0  0  0  0  0  0
   12.3490   15.2990  -13.2300 C   0  0  0  0  0  0  0  0  0  0  0  0
   12.8590   13.8720  -13.2310 C   0  0  0  0  0  0  0  0  0  0  0  0
   11.7930   13.0490  -12.7370 O   0  0  0  0  0  0  0  0  0  0  0  0
   10.7790   13.8990  -12.1720 C   0  0  0  0  0  0  0  0  0  0  0  0
   13.1820   15.4531   -1.8782 H   0  0  0  0  0  0  0  0  0  0  0  0
   14.1128   15.9871   -3.3187 H   0  0  0  0  0  0  0  0  0  0  0  0
   12.3196   16.0917   -3.3187 H   0  0  0  0  0  0  0  0  0  0  0  0
   12.9818   13.6713   -1.4860 H   0  0  0  0  0  0  0  0  0  0  0  0
   11.8278   12.7983   -2.5504 H   0  0  0  0  0  0  0  0  0  0  0  0
   13.5667   12.3478   -2.5504 H   0  0  0  0  0  0  0  0  0  0  0  0
   11.1282   13.7403   -4.0781 H   0  0  0  0  0  0  0  0  0  0  0  0
   11.9457   15.0705   -4.9972 H   0  0  0  0  0  0  0  0  0  0  0  0
   13.2324   12.3799   -5.4437 H   0  0  0  0  0  0  0  0  0  0  0  0
   10.7415   13.2214   -6.9021 H   0  0  0  0  0  0  0  0  0  0  0  0
   12.8880   14.9630   -8.0530 H   0  0  0  0  0  0  0  0  0  0  0  0
   15.6513   13.4019   -8.8463 H   0  0  0  0  0  0  0  0  0  0  0  0
   18.6910   13.6070   -9.4120 H   0  0  0  0  0  0  0  0  0  0  0  0
   17.7077   10.9248  -11.4041 H   0  0  0  0  0  0  0  0  0  0  0  0
   17.6668    8.5519  -10.6314 H   0  0  0  0  0  0  0  0  0  0  0  0
   18.1353   12.2490   -7.3135 H   0  0  0  0  0  0  0  0  0  0  0  0
   18.1378   14.7108  -13.9470 H   0  0  0  0  0  0  0  0  0  0  0  0
   13.7401   15.6876  -12.8343 H   0  0  0  0  0  0  0  0  0  0  0  0
   10.6438   16.1063  -12.1104 H   0  0  0  0  0  0  0  0  0  0  0  0
   11.8419   15.5423  -14.1754 H   0  0  0  0  0  0  0  0  0  0  0  0
   13.1442   16.0527  -13.1320 H   0  0  0  0  0  0  0  0  0  0  0  0
   13.1297   13.5676  -14.2528 H   0  0  0  0  0  0  0  0  0  0  0  0
   13.7564   13.7738  -12.6024 H   0  0  0  0  0  0  0  0  0  0  0  0
    9.8915   13.9136  -12.8218 H   0  0  0  0  0  0  0  0  0  0  0  0
   10.4637   13.5346  -11.1832 H   0  0  0  0  0  0  0  0  0  0  0  0
  1  2  1  0
  2  3  1  0
  2  4  1  0
  4  5  1  0
  5  6  2  0
  6  7  1  0
  7  8  2  0
  7  9  1  0
  9 10  1  0
 10 11  2  0
 11 12  1  0
 12 13  2  0
 13 14  1  0
 14 15  1  0
 15 16  2  0
 16 17  1  0
 17 18  2  0
 18 19  1  0
 18 20  1  0
 20 21  1  0
 20 22  2  0
 13 23  1  0
 23 24  2  0
 24 25  1  0
 25 26  2  0
 26 27  1  0
 27 28  2  0
 28 29  1  0
 29 30  1  0
 30 31  1  0
 31 32  1  0
 32 33  1  0
 33 34  1  0
 28 10  1  0
 34 30  1  0
 26 12  1  0
 22 15  1  0
  1 35  1  0
  1 36  1  0
  1 37  1  0
  3 38  1  0
  3 39  1  0
  3 40  1  0
  4 41  1  0
  4 42  1  0
  5 43  1  0
  6 44  1  0
  9 45  1  0
 11 46  1  0
 14 47  1  0
 16 48  1  0
 17 49  1  0
 22 50  1  0
 24 51  1  0
 27 52  1  0
 30 53  1  6
 31 54  1  0
 31 55  1  0
 32 56  1  0
 32 57  1  0
 34 58  1  0
 34 59  1  0
M  END
>  <meeko>  (1) 
{"is_sidechain": [false], "free_energy": 64.573, "intermolecular_energy": 98.548, "internal_energy": 4.172}

$$$$
2REI_Afatinib_DIs38Xm_out
     RDKit          3D

 59 62  0  0  0  0  0  0  0  0999 V2000
    9.3670    7.8220   -5.7050 C   0  0  0  0  0  0  0  0  0  0  0  0
   10.2820    8.9380   -5.9500 N   0  0  0  0  0  0  0  0  0  0  0  0
   11.6650    8.5210   -5.7120 C   0  0  0  0  0  0  0  0  0  0  0  0
   10.1260    9.4410   -7.3100 C   0  0  0  0  0  0  0  0  0  0  0  0
   11.4460    9.5450   -8.0150 C   0  0  0  0  0  0  0  0  0  0  0  0
   11.6000    9.3040   -9.3240 C   0  0  0  0  0  0  0  0  0  0  0  0
   12.8140    9.7890  -10.0460 C   0  0  0  0  0  0  0  0  0  0  0  0
   13.7630    9.0450  -10.2680 O   0  0  0  0  0  0  0  0  0  0  0  0
   12.6970   11.1380  -10.4030 N   0  0  0  0  0  0  0  0  0  0  0  0
   13.6240   11.9310  -11.0840 C   0  0  0  0  0  0  0  0  0  0  0  0
   14.9320   11.4830  -11.2330 C   0  0  0  0  0  0  0  0  0  0  0  0
   15.8720   12.2750  -11.9170 C   0  0  0  0  0  0  0  0  0  0  0  0
   17.1970   11.8860  -12.1020 C   0  0  0  0  0  0  0  0  0  0  0  0
   17.6330   10.6410  -11.5850 N   0  0  0  0  0  0  0  0  0  0  0  0
   17.7590   10.1490  -10.2760 C   0  0  0  0  0  0  0  0  0  0  0  0
   17.7720    8.7750  -10.0450 C   0  0  0  0  0  0  0  0  0  0  0  0
   17.8970    8.2870   -8.7440 C   0  0  0  0  0  0  0  0  0  0  0  0
   18.0110    9.1750   -7.6730 C   0  0  0  0  0  0  0  0  0  0  0  0
   18.1300    8.6910   -6.4290 F   0  0  0  0  0  0  0  0  0  0  0  0
   17.9980   10.5510   -7.9050 C   0  0  0  0  0  0  0  0  0  0  0  0
   18.1370   11.6520   -6.5890 Cl  0  0  0  0  0  0  0  0  0  0  0  0
   17.8730   11.0380   -9.2060 C   0  0  0  0  0  0  0  0  0  0  0  0
   18.1130   12.6250  -12.7530 N   0  0  0  0  0  0  0  0  0  0  0  0
   17.6550   13.7960  -13.2250 C   0  0  0  0  0  0  0  0  0  0  0  0
   16.4020   14.2840  -13.1140 N   0  0  0  0  0  0  0  0  0  0  0  0
   15.5120   13.5200  -12.4580 C   0  0  0  0  0  0  0  0  0  0  0  0
   14.1950   13.9430  -12.2930 C   0  0  0  0  0  0  0  0  0  0  0  0
   13.2550   13.1630  -11.6150 C   0  0  0  0  0  0  0  0  0  0  0  0
   11.9810   13.6280  -11.4850 O   0  0  0  0  0  0  0  0  0  0  0  0
   11.7900   15.0320  -11.6110 C   0  0  1  0  0  0  0  0  0  0  0  0
   12.5460   15.7570  -10.5240 C   0  0  0  0  0  0  0  0  0  0  0  0
   13.9600   15.7630  -11.0700 C   0  0  0  0  0  0  0  0  0  0  0  0
   13.8530   15.7900  -12.5000 O   0  0  0  0  0  0  0  0  0  0  0  0
   12.4890   15.5150  -12.8660 C   0  0  0  0  0  0  0  0  0  0  0  0
    9.2479    7.6767   -4.6212 H   0  0  0  0  0  0  0  0  0  0  0  0
    8.3882    8.0448   -6.1549 H   0  0  0  0  0  0  0  0  0  0  0  0
    9.7773    6.9059   -6.1549 H   0  0  0  0  0  0  0  0  0  0  0  0
   11.8500    8.4652   -4.6291 H   0  0  0  0  0  0  0  0  0  0  0  0
   11.8328    7.5323   -6.1640 H   0  0  0  0  0  0  0  0  0  0  0  0
   12.3514    9.2521   -6.1640 H   0  0  0  0  0  0  0  0  0  0  0  0
    9.4744    8.7555   -7.8716 H   0  0  0  0  0  0  0  0  0  0  0  0
    9.6844   10.4470   -7.2563 H   0  0  0  0  0  0  0  0  0  0  0  0
   12.3309    9.8332   -7.4286 H   0  0  0  0  0  0  0  0  0  0  0  0
   10.8266    8.7448   -9.8709 H   0  0  0  0  0  0  0  0  0  0  0  0
   11.8380   11.6200  -10.1430 H   0  0  0  0  0  0  0  0  0  0  0  0
   15.2314   10.5100  -10.8163 H   0  0  0  0  0  0  0  0  0  0  0  0
   17.6530    9.9080  -12.2900 H   0  0  0  0  0  0  0  0  0  0  0  0
   17.6837    8.0748  -10.8887 H   0  0  0  0  0  0  0  0  0  0  0  0
   17.9057    7.2022   -8.5621 H   0  0  0  0  0  0  0  0  0  0  0  0
   17.8643   12.1227   -9.3888 H   0  0  0  0  0  0  0  0  0  0  0  0
   18.3806   14.4259  -13.7605 H   0  0  0  0  0  0  0  0  0  0  0  0
   13.8877   14.9148  -12.7066 H   0  0  0  0  0  0  0  0  0  0  0  0
   10.7060   15.2179  -11.5918 H   0  0  0  0  0  0  0  0  0  0  0  0
   12.1662   16.7804  -10.3880 H   0  0  0  0  0  0  0  0  0  0  0  0
   12.4561   15.2870   -9.5336 H   0  0  0  0  0  0  0  0  0  0  0  0
   14.4995   16.6531  -10.7139 H   0  0  0  0  0  0  0  0  0  0  0  0
   14.5165   14.8761  -10.7330 H   0  0  0  0  0  0  0  0  0  0  0  0
   12.0056   16.4290  -13.2412 H   0  0  0  0  0  0  0  0  0  0  0  0
   12.4381   14.7587  -13.6631 H   0  0  0  0  0  0  0  0  0  0  0  0
  1  2  1  0
  2  3  1  0
  2  4  1  0
  4  5  1  0
  5  6  2  0
  6  7  1  0
  7  8  2  0
  7  9  1  0
  9 10  1  0
 10 11  2  0
 11 12  1  0
 12 13  2  0
 13 14  1  0
 14 15  1  0
 15 16  2  0
 16 17  1  0
 17 18  2  0
 18 19  1  0
 18 20  1  0
 20 21  1  0
 20 22  2  0
 13 23  1  0
 23 24  2  0
 24 25  1  0
 25 26  2  0
 26 27  1  0
 27 28  2  0
 28 29  1  0
 29 30  1  0
 30 31  1  0
 31 32  1  0
 32 33  1  0
 33 34  1  0
 28 10  1  0
 34 30  1  0
 26 12  1  0
 22 15  1  0
  1 35  1  0
  1 36  1  0
  1 37  1  0
  3 38  1  0
  3 39  1  0
  3 40  1  0
  4 41  1  0
  4 42  1  0
  5 43  1  0
  6 44  1  0
  9 45  1  0
 11 46  1  0
 14 47  1  0
 16 48  1  0
 17 49  1  0
 22 50  1  0
 24 51  1  0
 27 52  1  0
 30 53  1  6
 31 54  1  0
 31 55  1  0
 32 56  1  0
 32 57  1  0
 34 58  1  0
 34 59  1  0
M  END
>  <meeko>  (2) 
{"is_sidechain": [false], "free_energy": 67.481, "intermolecular_energy": 98.845, "internal_energy": 8.313}

$$$$
