@<TRIPOS>MOLECULE
MOL
   69    73     1     0     0
SMALL
bcc


@<TRIPOS>ATOM
      1 C1         -13.2160    27.4910     7.6800 c3         1 MOL      -0.131100
      2 C2         -14.2930    26.5800     7.1160 c3         1 MOL       0.170800
      3 N1         -15.6090    26.9240     7.6550 n3         1 MOL      -0.735600
      4 C3         -16.0090    25.9740     8.7000 c6         1 MOL       0.170300
      5 C4         -17.3870    26.3350     9.2660 c6         1 MOL       0.166300
      6 N2         -17.3940    27.7070     9.7890 n3         1 MOL      -0.731600
      7 C5         -18.7090    28.0500    10.3250 c3         1 MOL       0.220100
      8 C6         -18.6750    28.2340    11.8190 ca         1 MOL      -0.204600
      9 C7         -19.8310    28.5380    12.5310 ca         1 MOL      -0.091000
     10 C8         -19.7680    28.7000    13.9120 ca         1 MOL      -0.201300
     11 C9         -18.5350    28.5510    14.5260 ca         1 MOL       0.593200
     12 N3         -18.4870    28.7180    15.9330 nu         1 MOL      -0.786600
     13 C10        -18.5810    27.8090    16.9980 ca         1 MOL       0.848900
     14 N4         -19.3650    26.7320    16.8020 nb         1 MOL      -0.707000
     15 C11        -19.4320    25.8790    17.8450 ca         1 MOL       0.430200
     16 C12        -18.7590    26.0670    19.0340 ca         1 MOL      -0.145700
     17 F1         -18.8560    25.1920    20.0400 f          1 MOL      -0.116900
     18 C13        -17.9870    27.2090    19.1100 cp         1 MOL       0.510800
     19 C14        -17.2310    27.5260    20.2960 cp         1 MOL      -0.126500
     20 C15        -17.9020    27.9530    21.4450 ca         1 MOL      -0.168000
     21 C16        -17.1980    28.2710    22.6140 ca         1 MOL       0.183900
     22 F2         -17.8550    28.6770    23.7080 f          1 MOL      -0.120900
     23 C17        -15.7990    28.1520    22.6080 ca         1 MOL       0.048400
     24 N5         -14.8860    28.3980    23.6090 nc         1 MOL      -0.556100
     25 C18        -13.7150    28.1290    23.0760 cd         1 MOL       0.432800
     26 C19        -12.4090    28.2380    23.7570 c3         1 MOL      -0.116400
     27 N6         -13.8270    27.7190    21.7760 na         1 MOL      -0.161300
     28 C20        -12.7380    27.3460    20.9010 c3         1 MOL       0.059000
     29 C21        -12.0670    26.0490    21.3590 c3         1 MOL      -0.112600
     30 C22        -11.7110    28.4740    20.7670 c3         1 MOL      -0.112600
     31 C23        -15.1590    27.7250    21.4480 ca         1 MOL      -0.061200
     32 C24        -15.8380    27.4020    20.2730 ca         1 MOL      -0.099000
     33 N7         -17.8750    28.1040    18.1060 nb         1 MOL      -0.720000
     34 N8         -17.3910    28.2580    13.8680 nb         1 MOL      -0.701000
     35 C25        -17.4910    28.1060    12.5280 ca         1 MOL       0.430200
     36 C26        -16.9930    28.6570     8.7440 c6         1 MOL       0.166300
     37 C27        -15.6160    28.2960     8.1790 c6         1 MOL       0.170300
     38 H1         -13.2500    27.4620     8.7790 hc         1 MOL       0.038367
     39 H2         -12.2290    27.1490     7.3350 hc         1 MOL       0.038367
     40 H3         -13.3890    28.5210     7.3350 hc         1 MOL       0.038367
     41 H4         -14.3150    26.6840     6.0210 h1         1 MOL       0.049200
     42 H5         -14.0590    25.5440     7.4010 h1         1 MOL       0.049200
     43 H6         -16.0490    24.9620     8.2710 h1         1 MOL       0.037700
     44 H7         -15.2710    26.0150     9.5150 h1         1 MOL       0.037700
     45 H8         -18.1380    26.2500     8.4670 h1         1 MOL       0.039200
     46 H9         -17.6220    25.6430    10.0880 h1         1 MOL       0.039200
     47 H10        -19.0500    28.9860     9.8590 h1         1 MOL       0.042700
     48 H11        -19.3960    27.2210    10.0990 h1         1 MOL       0.042700
     49 H12        -20.7910    28.6500    12.0050 ha         1 MOL       0.142000
     50 H13        -20.6680    28.9390    14.4970 ha         1 MOL       0.162000
     51 H14        -18.3610    29.6770    16.2420 hn         1 MOL       0.440800
     52 H15        -20.0600    24.9820    17.7410 h4         1 MOL       0.044100
     53 H16        -18.9980    28.0410    21.4310 ha         1 MOL       0.158000
     54 H17        -12.5610    28.2250    24.8460 hc         1 MOL       0.064367
     55 H18        -11.7720    27.3900    23.4660 hc         1 MOL       0.064367
     56 H19        -11.9210    29.1800    23.4660 hc         1 MOL       0.064367
     57 H20        -13.1710    27.1670    19.9060 h1         1 MOL       0.068700
     58 H21        -12.0490    26.0140    22.4580 hc         1 MOL       0.049700
     59 H22        -12.6330    25.1880    20.9740 hc         1 MOL       0.049700
     60 H23        -11.0370    26.0130    20.9740 hc         1 MOL       0.049700
     61 H24        -11.4040    28.8110    21.7680 hc         1 MOL       0.049700
     62 H25        -10.8320    28.1060    20.2180 hc         1 MOL       0.049700
     63 H26        -12.1600    29.3150    20.2180 hc         1 MOL       0.049700
     64 H27        -15.3040    27.0660    19.3720 ha         1 MOL       0.152000
     65 H28        -16.5760    27.8660    11.9660 h4         1 MOL       0.040100
     66 H29        -17.7340    28.6330     7.9310 h1         1 MOL       0.039200
     67 H30        -16.9400    29.6640     9.1840 h1         1 MOL       0.039200
     68 H31        -15.3660    28.9940     7.3660 h1         1 MOL       0.037700
     69 H32        -14.8740    28.3680     8.9880 h1         1 MOL       0.037700
@<TRIPOS>BOND
     1     1     2 1   
     2     2     3 1   
     3     3     4 1   
     4     4     5 1   
     5     5     6 1   
     6     6     7 1   
     7     7     8 1   
     8     8     9 ar  
     9     9    10 ar  
    10    10    11 ar  
    11    11    12 1   
    12    12    13 1   
    13    13    14 ar  
    14    14    15 ar  
    15    15    16 ar  
    16    16    17 1   
    17    16    18 ar  
    18    18    19 1   
    19    19    20 ar  
    20    20    21 ar  
    21    21    22 1   
    22    21    23 ar  
    23    23    24 1   
    24    24    25 2   
    25    25    26 1   
    26    25    27 1   
    27    27    28 1   
    28    28    29 1   
    29    28    30 1   
    30    27    31 1   
    31    31    32 ar  
    32    18    33 ar  
    33    11    34 ar  
    34    34    35 ar  
    35     6    36 1   
    36    36    37 1   
    37    37     3 1   
    38    35     8 ar  
    39    33    13 ar  
    40    32    19 ar  
    41    31    23 ar  
    42     1    38 1   
    43     1    39 1   
    44     1    40 1   
    45     2    41 1   
    46     2    42 1   
    47     4    43 1   
    48     4    44 1   
    49     5    45 1   
    50     5    46 1   
    51     7    47 1   
    52     7    48 1   
    53     9    49 1   
    54    10    50 1   
    55    12    51 1   
    56    15    52 1   
    57    20    53 1   
    58    26    54 1   
    59    26    55 1   
    60    26    56 1   
    61    28    57 1   
    62    29    58 1   
    63    29    59 1   
    64    29    60 1   
    65    30    61 1   
    66    30    62 1   
    67    30    63 1   
    68    32    64 1   
    69    35    65 1   
    70    36    66 1   
    71    36    67 1   
    72    37    68 1   
    73    37    69 1   
@<TRIPOS>SUBSTRUCTURE
     1 MOL         1 TEMP              0 ****  ****    0 ROOT
