6TAV_Afatinib_DIs38Xm_out
     RDKit          3D

 59 62  0  0  0  0  0  0  0  0999 V2000
   60.7690  129.9660   65.7200 C   0  0  0  0  0  0  0  0  0  0  0  0
   61.8400  129.9580   66.7180 N   0  0  0  0  0  0  0  0  0  0  0  0
   63.0900  129.4910   66.1180 C   0  0  0  0  0  0  0  0  0  0  0  0
   62.0140  131.2860   67.2960 C   0  0  0  0  0  0  0  0  0  0  0  0
   62.0160  131.2400   68.7950 C   0  0  0  0  0  0  0  0  0  0  0  0
   63.1380  131.2150   69.5270 C   0  0  0  0  0  0  0  0  0  0  0  0
   63.5890  129.9500   70.1800 C   0  0  0  0  0  0  0  0  0  0  0  0
   63.9100  128.9700   69.5170 O   0  0  0  0  0  0  0  0  0  0  0  0
   63.5850  130.0600   71.5760 N   0  0  0  0  0  0  0  0  0  0  0  0
   63.9420  129.0900   72.5170 C   0  0  0  0  0  0  0  0  0  0  0  0
   62.9780  128.2090   72.9940 C   0  0  0  0  0  0  0  0  0  0  0  0
   63.3280  127.2300   73.9400 C   0  0  0  0  0  0  0  0  0  0  0  0
   62.4120  126.3170   74.4590 C   0  0  0  0  0  0  0  0  0  0  0  0
   61.0640  126.3630   74.0240 N   0  0  0  0  0  0  0  0  0  0  0  0
   59.8430  126.3540   74.7180 C   0  0  0  0  0  0  0  0  0  0  0  0
   58.6560  126.6380   74.0450 C   0  0  0  0  0  0  0  0  0  0  0  0
   57.4430  126.6290   74.7350 C   0  0  0  0  0  0  0  0  0  0  0  0
   57.4190  126.3350   76.0990 C   0  0  0  0  0  0  0  0  0  0  0  0
   56.2460  126.3310   76.7480 F   0  0  0  0  0  0  0  0  0  0  0  0
   58.6080  126.0520   76.7730 C   0  0  0  0  0  0  0  0  0  0  0  0
   58.5840  125.6890   78.4550 Cl  0  0  0  0  0  0  0  0  0  0  0  0
   59.8190  126.0610   76.0820 C   0  0  0  0  0  0  0  0  0  0  0  0
   62.7240  125.3710   75.3640 N   0  0  0  0  0  0  0  0  0  0  0  0
   64.0110  125.3650   75.7460 C   0  0  0  0  0  0  0  0  0  0  0  0
   64.9900  126.1900   75.3200 N   0  0  0  0  0  0  0  0  0  0  0  0
   64.6450  127.1230   74.4160 C   0  0  0  0  0  0  0  0  0  0  0  0
   65.5900  128.0180   73.9200 C   0  0  0  0  0  0  0  0  0  0  0  0
   65.2490  128.9950   72.9800 C   0  0  0  0  0  0  0  0  0  0  0  0
   66.2160  129.8430   72.5310 O   0  0  0  0  0  0  0  0  0  0  0  0
   67.3770  129.2540   71.9570 C   0  0  1  0  0  0  0  0  0  0  0  0
   67.1740  129.0460   70.4760 C   0  0  0  0  0  0  0  0  0  0  0  0
   67.4380  130.4310   69.9210 C   0  0  0  0  0  0  0  0  0  0  0  0
   68.3900  131.0540   70.7940 O   0  0  0  0  0  0  0  0  0  0  0  0
   68.5090  130.2620   71.9880 C   0  0  0  0  0  0  0  0  0  0  0  0
   59.7938  129.9733   66.2288 H   0  0  0  0  0  0  0  0  0  0  0  0
   60.8610  130.8635   65.0907 H   0  0  0  0  0  0  0  0  0  0  0  0
   60.8475  129.0672   65.0907 H   0  0  0  0  0  0  0  0  0  0  0  0
   63.8017  129.2251   66.9135 H   0  0  0  0  0  0  0  0  0  0  0  0
   62.8897  128.6070   65.4947 H   0  0  0  0  0  0  0  0  0  0  0  0
   63.5184  130.2897   65.4947 H   0  0  0  0  0  0  0  0  0  0  0  0
   62.9714  131.7030   66.9504 H   0  0  0  0  0  0  0  0  0  0  0  0
   61.1717  131.9150   66.9723 H   0  0  0  0  0  0  0  0  0  0  0  0
   61.0490  131.2261   69.3192 H   0  0  0  0  0  0  0  0  0  0  0  0
   63.7314  132.1333   69.6479 H   0  0  0  0  0  0  0  0  0  0  0  0
   63.2890  130.9490   71.9760 H   0  0  0  0  0  0  0  0  0  0  0  0
   61.9418  128.2781   72.6313 H   0  0  0  0  0  0  0  0  0  0  0  0
   60.9720  126.6720   73.0600 H   0  0  0  0  0  0  0  0  0  0  0  0
   58.6753  126.8693   72.9698 H   0  0  0  0  0  0  0  0  0  0  0  0
   56.5062  126.8535   74.2040 H   0  0  0  0  0  0  0  0  0  0  0  0
   60.7562  125.8369   76.6126 H   0  0  0  0  0  0  0  0  0  0  0  0
   64.2987  124.6047   76.4870 H   0  0  0  0  0  0  0  0  0  0  0  0
   66.6288  127.9546   74.2762 H   0  0  0  0  0  0  0  0  0  0  0  0
   67.5785  128.3236   72.5081 H   0  0  0  0  0  0  0  0  0  0  0  0
   67.8883  128.3122   70.0744 H   0  0  0  0  0  0  0  0  0  0  0  0
   66.1819  128.6476   70.2172 H   0  0  0  0  0  0  0  0  0  0  0  0
   67.8486  130.3589   68.9031 H   0  0  0  0  0  0  0  0  0  0  0  0
   66.5092  131.0179   69.8676 H   0  0  0  0  0  0  0  0  0  0  0  0
   69.4786  129.7428   72.0034 H   0  0  0  0  0  0  0  0  0  0  0  0
   68.4531  130.8921   72.8879 H   0  0  0  0  0  0  0  0  0  0  0  0
  1  2  1  0
  2  3  1  0
  2  4  1  0
  4  5  1  0
  5  6  2  0
  6  7  1  0
  7  8  2  0
  7  9  1  0
  9 10  1  0
 10 11  2  0
 11 12  1  0
 12 13  2  0
 13 14  1  0
 14 15  1  0
 15 16  2  0
 16 17  1  0
 17 18  2  0
 18 19  1  0
 18 20  1  0
 20 21  1  0
 20 22  2  0
 13 23  1  0
 23 24  2  0
 24 25  1  0
 25 26  2  0
 26 27  1  0
 27 28  2  0
 28 29  1  0
 29 30  1  0
 30 31  1  0
 31 32  1  0
 32 33  1  0
 33 34  1  0
 28 10  1  0
 34 30  1  0
 26 12  1  0
 22 15  1  0
  1 35  1  0
  1 36  1  0
  1 37  1  0
  3 38  1  0
  3 39  1  0
  3 40  1  0
  4 41  1  0
  4 42  1  0
  5 43  1  0
  6 44  1  0
  9 45  1  0
 11 46  1  0
 14 47  1  0
 16 48  1  0
 17 49  1  0
 22 50  1  0
 24 51  1  0
 27 52  1  0
 30 53  1  1
 31 54  1  0
 31 55  1  0
 32 56  1  0
 32 57  1  0
 34 58  1  0
 34 59  1  0
M  END
>  <meeko>  (1) 
{"is_sidechain": [false], "free_energy": -6.582, "intermolecular_energy": -10.045, "internal_energy": -1.381}

$$$$
6TAV_Afatinib_DIs38Xm_out
     RDKit          3D

 59 62  0  0  0  0  0  0  0  0999 V2000
   47.9490   99.5590   89.4600 C   0  0  0  0  0  0  0  0  0  0  0  0
   46.8360   99.8540   88.5550 N   0  0  0  0  0  0  0  0  0  0  0  0
   45.6500   99.0900   88.9430 C   0  0  0  0  0  0  0  0  0  0  0  0
   46.5460  101.2830   88.5460 C   0  0  0  0  0  0  0  0  0  0  0  0
   46.8590  101.9020   87.2170 C   0  0  0  0  0  0  0  0  0  0  0  0
   46.2750  101.5210   86.0730 C   0  0  0  0  0  0  0  0  0  0  0  0
   47.0660  100.8280   85.0120 C   0  0  0  0  0  0  0  0  0  0  0  0
   47.3410  101.3860   83.9560 O   0  0  0  0  0  0  0  0  0  0  0  0
   47.4170   99.5270   85.3960 N   0  0  0  0  0  0  0  0  0  0  0  0
   48.1500   98.5850   84.6710 C   0  0  0  0  0  0  0  0  0  0  0  0
   49.5390   98.5870   84.7490 C   0  0  0  0  0  0  0  0  0  0  0  0
   50.2850   97.6420   84.0230 C   0  0  0  0  0  0  0  0  0  0  0  0
   51.6760   97.5890   84.0560 C   0  0  0  0  0  0  0  0  0  0  0  0
   52.3870   98.5220   84.8510 N   0  0  0  0  0  0  0  0  0  0  0  0
   52.8710   98.4690   86.1680 C   0  0  0  0  0  0  0  0  0  0  0  0
   53.4230   99.6080   86.7550 C   0  0  0  0  0  0  0  0  0  0  0  0
   53.9030   99.5560   88.0630 C   0  0  0  0  0  0  0  0  0  0  0  0
   53.8310   98.3640   88.7860 C   0  0  0  0  0  0  0  0  0  0  0  0
   54.2980   98.3300   90.0420 F   0  0  0  0  0  0  0  0  0  0  0  0
   53.2800   97.2240   88.1990 C   0  0  0  0  0  0  0  0  0  0  0  0
   53.1900   95.7510   89.0840 Cl  0  0  0  0  0  0  0  0  0  0  0  0
   52.8000   97.2770   86.8900 C   0  0  0  0  0  0  0  0  0  0  0  0
   52.4110   96.6940   83.3700 N   0  0  0  0  0  0  0  0  0  0  0  0
   51.6950   95.8310   82.6310 C   0  0  0  0  0  0  0  0  0  0  0  0
   50.3520   95.7770   82.5160 N   0  0  0  0  0  0  0  0  0  0  0  0
   49.6480   96.6860   83.2140 C   0  0  0  0  0  0  0  0  0  0  0  0
   48.2570   96.7060   83.1560 C   0  0  0  0  0  0  0  0  0  0  0  0
   47.5080   97.6430   83.8740 C   0  0  0  0  0  0  0  0  0  0  0  0
   46.1490   97.6150   83.7790 O   0  0  0  0  0  0  0  0  0  0  0  0
   45.4960   96.4230   84.2030 C   0  0  1  0  0  0  0  0  0  0  0  0
   45.3010   96.4440   85.6990 C   0  0  0  0  0  0  0  0  0  0  0  0
   44.0790   97.3270   85.8480 C   0  0  0  0  0  0  0  0  0  0  0  0
   43.2860   97.1430   84.6670 O   0  0  0  0  0  0  0  0  0  0  0  0
   44.0700   96.4340   83.6920 C   0  0  0  0  0  0  0  0  0  0  0  0
   47.6082   99.6493   90.5020 H   0  0  0  0  0  0  0  0  0  0  0  0
   48.3073   98.5349   89.2789 H   0  0  0  0  0  0  0  0  0  0  0  0
   48.7675  100.2712   89.2789 H   0  0  0  0  0  0  0  0  0  0  0  0
   45.5840   99.0475   90.0402 H   0  0  0  0  0  0  0  0  0  0  0  0
   44.7508   99.5791   88.5403 H   0  0  0  0  0  0  0  0  0  0  0  0
   45.7236   98.0690   88.5403 H   0  0  0  0  0  0  0  0  0  0  0  0
   45.4787  101.4319   88.7665 H   0  0  0  0  0  0  0  0  0  0  0  0
   47.1760  101.7664   89.3072 H   0  0  0  0  0  0  0  0  0  0  0  0
   47.6053  102.7092   87.1792 H   0  0  0  0  0  0  0  0  0  0  0  0
   45.2049  101.7200   85.9138 H   0  0  0  0  0  0  0  0  0  0  0  0
   47.1090   99.2100   86.3140 H   0  0  0  0  0  0  0  0  0  0  0  0
   50.0535   99.3278   85.3786 H   0  0  0  0  0  0  0  0  0  0  0  0
   52.8040   99.2700   84.3030 H   0  0  0  0  0  0  0  0  0  0  0  0
   53.4795  100.5475   86.1856 H   0  0  0  0  0  0  0  0  0  0  0  0
   54.3384  100.4542   88.5252 H   0  0  0  0  0  0  0  0  0  0  0  0
   52.3654   96.3788   86.4270 H   0  0  0  0  0  0  0  0  0  0  0  0
   52.2661   95.0867   82.0566 H   0  0  0  0  0  0  0  0  0  0  0  0
   47.7350   95.9670   82.5304 H   0  0  0  0  0  0  0  0  0  0  0  0
   46.1009   95.5745   83.8507 H   0  0  0  0  0  0  0  0  0  0  0  0
   45.1136   95.4336   86.0913 H   0  0  0  0  0  0  0  0  0  0  0  0
   46.1787   96.8060   86.2545 H   0  0  0  0  0  0  0  0  0  0  0  0
   43.5052   97.0317   86.7388 H   0  0  0  0  0  0  0  0  0  0  0  0
   44.3674   98.3817   85.9684 H   0  0  0  0  0  0  0  0  0  0  0  0
   43.6985   95.4043   83.5832 H   0  0  0  0  0  0  0  0  0  0  0  0
   44.0071   96.9183   82.7064 H   0  0  0  0  0  0  0  0  0  0  0  0
  1  2  1  0
  2  3  1  0
  2  4  1  0
  4  5  1  0
  5  6  2  0
  6  7  1  0
  7  8  2  0
  7  9  1  0
  9 10  1  0
 10 11  2  0
 11 12  1  0
 12 13  2  0
 13 14  1  0
 14 15  1  0
 15 16  2  0
 16 17  1  0
 17 18  2  0
 18 19  1  0
 18 20  1  0
 20 21  1  0
 20 22  2  0
 13 23  1  0
 23 24  2  0
 24 25  1  0
 25 26  2  0
 26 27  1  0
 27 28  2  0
 28 29  1  0
 29 30  1  0
 30 31  1  0
 31 32  1  0
 32 33  1  0
 33 34  1  0
 28 10  1  0
 34 30  1  0
 26 12  1  0
 22 15  1  0
  1 35  1  0
  1 36  1  0
  1 37  1  0
  3 38  1  0
  3 39  1  0
  3 40  1  0
  4 41  1  0
  4 42  1  0
  5 43  1  0
  6 44  1  0
  9 45  1  0
 11 46  1  0
 14 47  1  0
 16 48  1  0
 17 49  1  0
 22 50  1  0
 24 51  1  0
 27 52  1  0
 30 53  1  1
 31 54  1  0
 31 55  1  0
 32 56  1  0
 32 57  1  0
 34 58  1  0
 34 59  1  0
M  END
>  <meeko>  (2) 
{"is_sidechain": [false], "free_energy": -6.512, "intermolecular_energy": -9.082, "internal_energy": -2.238}

$$$$
6TAV_Afatinib_DIs38Xm_out
     RDKit          3D

 59 62  0  0  0  0  0  0  0  0999 V2000
   43.6070  124.2530   77.9010 C   0  0  0  0  0  0  0  0  0  0  0  0
   43.7180  123.9960   79.3380 N   0  0  0  0  0  0  0  0  0  0  0  0
   44.7560  122.9960   79.5960 C   0  0  0  0  0  0  0  0  0  0  0  0
   44.0050  125.2300   80.0610 C   0  0  0  0  0  0  0  0  0  0  0  0
   45.4660  125.5650   80.0230 C   0  0  0  0  0  0  0  0  0  0  0  0
   45.9350  126.8160   80.1210 C   0  0  0  0  0  0  0  0  0  0  0  0
   47.3820  127.0640   80.4010 C   0  0  0  0  0  0  0  0  0  0  0  0
   48.0650  126.2390   80.9970 O   0  0  0  0  0  0  0  0  0  0  0  0
   47.7980  128.3060   79.9060 N   0  0  0  0  0  0  0  0  0  0  0  0
   49.0710  128.8780   79.9780 C   0  0  0  0  0  0  0  0  0  0  0  0
   49.4040  129.6760   81.0670 C   0  0  0  0  0  0  0  0  0  0  0  0
   50.6820  130.2560   81.1480 C   0  0  0  0  0  0  0  0  0  0  0  0
   51.0800  131.0650   82.2090 C   0  0  0  0  0  0  0  0  0  0  0  0
   50.1690  131.3250   83.2630 N   0  0  0  0  0  0  0  0  0  0  0  0
   50.0610  130.8200   84.5690 C   0  0  0  0  0  0  0  0  0  0  0  0
   49.7010  131.6660   85.6170 C   0  0  0  0  0  0  0  0  0  0  0  0
   49.5920  131.1630   86.9140 C   0  0  0  0  0  0  0  0  0  0  0  0
   49.8440  129.8130   87.1620 C   0  0  0  0  0  0  0  0  0  0  0  0
   49.7360  129.3460   88.4140 F   0  0  0  0  0  0  0  0  0  0  0  0
   50.2050  128.9670   86.1130 C   0  0  0  0  0  0  0  0  0  0  0  0
   50.5170  127.3000   86.4130 Cl  0  0  0  0  0  0  0  0  0  0  0  0
   50.3120  129.4690   84.8170 C   0  0  0  0  0  0  0  0  0  0  0  0
   52.2980  131.6290   82.3090 N   0  0  0  0  0  0  0  0  0  0  0  0
   53.1270  131.3550   81.2900 C   0  0  0  0  0  0  0  0  0  0  0  0
   52.8640  130.5900   80.2100 N   0  0  0  0  0  0  0  0  0  0  0  0
   51.6390  130.0410   80.1420 C   0  0  0  0  0  0  0  0  0  0  0  0
   51.2780  129.2370   79.0630 C   0  0  0  0  0  0  0  0  0  0  0  0
   50.0090  128.6580   78.9750 C   0  0  0  0  0  0  0  0  0  0  0  0
   49.7110  127.8790   77.8970 O   0  0  0  0  0  0  0  0  0  0  0  0
   49.9330  128.4460   76.6100 C   0  0  1  0  0  0  0  0  0  0  0  0
   49.5480  127.4580   75.5360 C   0  0  0  0  0  0  0  0  0  0  0  0
   48.0410  127.6090   75.4910 C   0  0  0  0  0  0  0  0  0  0  0  0
   47.7470  128.9650   75.8540 O   0  0  0  0  0  0  0  0  0  0  0  0
   48.9400  129.5680   76.3870 C   0  0  0  0  0  0  0  0  0  0  0  0
   43.1756  125.2519   77.7394 H   0  0  0  0  0  0  0  0  0  0  0  0
   44.6055  124.2062   77.4419 H   0  0  0  0  0  0  0  0  0  0  0  0
   42.9565  123.4940   77.4419 H   0  0  0  0  0  0  0  0  0  0  0  0
   44.8843  122.8724   80.6815 H   0  0  0  0  0  0  0  0  0  0  0  0
   44.4586  122.0354   79.1502 H   0  0  0  0  0  0  0  0  0  0  0  0
   45.7049  123.3290   79.1502 H   0  0  0  0  0  0  0  0  0  0  0  0
   43.4380  126.0530   79.6015 H   0  0  0  0  0  0  0  0  0  0  0  0
   43.7115  125.0893   81.1117 H   0  0  0  0  0  0  0  0  0  0  0  0
   46.1882  124.7432   79.9091 H   0  0  0  0  0  0  0  0  0  0  0  0
   45.2499  127.6672   79.9944 H   0  0  0  0  0  0  0  0  0  0  0  0
   47.1030  128.8790   79.4310 H   0  0  0  0  0  0  0  0  0  0  0  0
   48.6677  129.8533   81.8648 H   0  0  0  0  0  0  0  0  0  0  0  0
   49.6380  132.1800   83.1210 H   0  0  0  0  0  0  0  0  0  0  0  0
   49.5029  132.7302   85.4214 H   0  0  0  0  0  0  0  0  0  0  0  0
   49.3075  131.8304   87.7408 H   0  0  0  0  0  0  0  0  0  0  0  0
   50.5941  128.8010   83.9898 H   0  0  0  0  0  0  0  0  0  0  0  0
   54.1304  131.8029   81.3406 H   0  0  0  0  0  0  0  0  0  0  0  0
   52.0088  129.0536   78.2616 H   0  0  0  0  0  0  0  0  0  0  0  0
   50.9878  128.7548   76.5654 H   0  0  0  0  0  0  0  0  0  0  0  0
   50.0045  127.7201   74.5702 H   0  0  0  0  0  0  0  0  0  0  0  0
   49.8839  126.4304   75.7391 H   0  0  0  0  0  0  0  0  0  0  0  0
   47.6700  127.4000   74.4767 H   0  0  0  0  0  0  0  0  0  0  0  0
   47.5539  126.9027   76.1794 H   0  0  0  0  0  0  0  0  0  0  0  0
   49.3474  130.2983   75.6723 H   0  0  0  0  0  0  0  0  0  0  0  0
   48.7283  130.1011   77.3256 H   0  0  0  0  0  0  0  0  0  0  0  0
  1  2  1  0
  2  3  1  0
  2  4  1  0
  4  5  1  0
  5  6  2  0
  6  7  1  0
  7  8  2  0
  7  9  1  0
  9 10  1  0
 10 11  2  0
 11 12  1  0
 12 13  2  0
 13 14  1  0
 14 15  1  0
 15 16  2  0
 16 17  1  0
 17 18  2  0
 18 19  1  0
 18 20  1  0
 20 21  1  0
 20 22  2  0
 13 23  1  0
 23 24  2  0
 24 25  1  0
 25 26  2  0
 26 27  1  0
 27 28  2  0
 28 29  1  0
 29 30  1  0
 30 31  1  0
 31 32  1  0
 32 33  1  0
 33 34  1  0
 28 10  1  0
 34 30  1  0
 26 12  1  0
 22 15  1  0
  1 35  1  0
  1 36  1  0
  1 37  1  0
  3 38  1  0
  3 39  1  0
  3 40  1  0
  4 41  1  0
  4 42  1  0
  5 43  1  0
  6 44  1  0
  9 45  1  0
 11 46  1  0
 14 47  1  0
 16 48  1  0
 17 49  1  0
 22 50  1  0
 24 51  1  0
 27 52  1  0
 30 53  1  1
 31 54  1  0
 31 55  1  0
 32 56  1  0
 32 57  1  0
 34 58  1  0
 34 59  1  0
M  END
>  <meeko>  (3) 
{"is_sidechain": [false], "free_energy": -6.433, "intermolecular_energy": -9.665, "internal_energy": -1.535}

$$$$
6TAV_Afatinib_DIs38Xm_out
     RDKit          3D

 59 62  0  0  0  0  0  0  0  0999 V2000
   46.5700  104.9350   85.0030 C   0  0  0  0  0  0  0  0  0  0  0  0
   46.6680  103.4780   84.9010 N   0  0  0  0  0  0  0  0  0  0  0  0
   48.0430  103.0820   84.5940 C   0  0  0  0  0  0  0  0  0  0  0  0
   46.2160  102.8450   86.1350 C   0  0  0  0  0  0  0  0  0  0  0  0
   47.3220  102.0820   86.8010 C   0  0  0  0  0  0  0  0  0  0  0  0
   47.1520  100.8710   87.3500 C   0  0  0  0  0  0  0  0  0  0  0  0
   48.0020   99.7190   86.9230 C   0  0  0  0  0  0  0  0  0  0  0  0
   48.6170   99.0440   87.7410 O   0  0  0  0  0  0  0  0  0  0  0  0
   47.9800   99.5500   85.5330 N   0  0  0  0  0  0  0  0  0  0  0  0
   48.6480   98.5850   84.7740 C   0  0  0  0  0  0  0  0  0  0  0  0
   50.0350   98.5100   84.8260 C   0  0  0  0  0  0  0  0  0  0  0  0
   50.7150   97.5420   84.0650 C   0  0  0  0  0  0  0  0  0  0  0  0
   52.1020   97.4120   84.0700 C   0  0  0  0  0  0  0  0  0  0  0  0
   52.8770   98.2860   84.8720 N   0  0  0  0  0  0  0  0  0  0  0  0
   53.2850   98.2300   86.2150 C   0  0  0  0  0  0  0  0  0  0  0  0
   54.0930   99.2370   86.7420 C   0  0  0  0  0  0  0  0  0  0  0  0
   54.4970   99.1810   88.0760 C   0  0  0  0  0  0  0  0  0  0  0  0
   54.0920   98.1170   88.8830 C   0  0  0  0  0  0  0  0  0  0  0  0
   54.4890   98.0770   90.1630 F   0  0  0  0  0  0  0  0  0  0  0  0
   53.2830   97.1100   88.3560 C   0  0  0  0  0  0  0  0  0  0  0  0
   52.7810   95.7950   89.3470 Cl  0  0  0  0  0  0  0  0  0  0  0  0
   52.8790   97.1660   87.0230 C   0  0  0  0  0  0  0  0  0  0  0  0
   52.7740   96.4940   83.3520 N   0  0  0  0  0  0  0  0  0  0  0  0
   51.9990   95.6880   82.6090 C   0  0  0  0  0  0  0  0  0  0  0  0
   50.6530   95.7110   82.5180 N   0  0  0  0  0  0  0  0  0  0  0  0
   50.0130   96.6400   83.2480 C   0  0  0  0  0  0  0  0  0  0  0  0
   48.6240   96.7380   83.2170 C   0  0  0  0  0  0  0  0  0  0  0  0
   47.9410   97.6980   83.9690 C   0  0  0  0  0  0  0  0  0  0  0  0
   46.5810   97.7470   83.8990 O   0  0  0  0  0  0  0  0  0  0  0  0
   45.8710   96.5780   84.2950 C   0  0  1  0  0  0  0  0  0  0  0  0
   44.8900   96.9150   85.3910 C   0  0  0  0  0  0  0  0  0  0  0  0
   43.7370   97.5150   84.6120 C   0  0  0  0  0  0  0  0  0  0  0  0
   43.7290   96.8810   83.3260 O   0  0  0  0  0  0  0  0  0  0  0  0
   44.9570   96.1490   83.1650 C   0  0  0  0  0  0  0  0  0  0  0  0
   46.5503  105.2278   86.0631 H   0  0  0  0  0  0  0  0  0  0  0  0
   47.4391  105.3963   84.5113 H   0  0  0  0  0  0  0  0  0  0  0  0
   45.6469  105.2757   84.5113 H   0  0  0  0  0  0  0  0  0  0  0  0
   48.5966  102.9226   85.5311 H   0  0  0  0  0  0  0  0  0  0  0  0
   48.0344  102.1498   84.0101 H   0  0  0  0  0  0  0  0  0  0  0  0
   48.5315  103.8760   84.0101 H   0  0  0  0  0  0  0  0  0  0  0  0
   45.8540  103.6228   86.8234 H   0  0  0  0  0  0  0  0  0  0  0  0
   45.4121  102.1373   85.8843 H   0  0  0  0  0  0  0  0  0  0  0  0
   48.3220  102.5386   86.8410 H   0  0  0  0  0  0  0  0  0  0  0  0
   46.3809  100.7244   88.1207 H   0  0  0  0  0  0  0  0  0  0  0  0
   47.4150  100.1990   84.9900 H   0  0  0  0  0  0  0  0  0  0  0  0
   50.6004   99.2072   85.4618 H   0  0  0  0  0  0  0  0  0  0  0  0
   53.4070   98.9580   84.3230 H   0  0  0  0  0  0  0  0  0  0  0  0
   54.4118  100.0757   86.1056 H   0  0  0  0  0  0  0  0  0  0  0  0
   55.1346   99.9752   88.4916 H   0  0  0  0  0  0  0  0  0  0  0  0
   52.2406   96.3723   86.6078 H   0  0  0  0  0  0  0  0  0  0  0  0
   52.5178   94.9258   82.0091 H   0  0  0  0  0  0  0  0  0  0  0  0
   48.0508   96.0432   82.5856 H   0  0  0  0  0  0  0  0  0  0  0  0
   46.6172   95.8253   84.5892 H   0  0  0  0  0  0  0  0  0  0  0  0
   44.5764   96.0132   85.9372 H   0  0  0  0  0  0  0  0  0  0  0  0
   45.2999   97.5851   86.1611 H   0  0  0  0  0  0  0  0  0  0  0  0
   42.7877   97.3239   85.1339 H   0  0  0  0  0  0  0  0  0  0  0  0
   43.8529   98.6044   84.5133 H   0  0  0  0  0  0  0  0  0  0  0  0
   44.7642   95.0676   83.2231 H   0  0  0  0  0  0  0  0  0  0  0  0
   45.4147   96.3546   82.1861 H   0  0  0  0  0  0  0  0  0  0  0  0
  1  2  1  0
  2  3  1  0
  2  4  1  0
  4  5  1  0
  5  6  2  0
  6  7  1  0
  7  8  2  0
  7  9  1  0
  9 10  1  0
 10 11  2  0
 11 12  1  0
 12 13  2  0
 13 14  1  0
 14 15  1  0
 15 16  2  0
 16 17  1  0
 17 18  2  0
 18 19  1  0
 18 20  1  0
 20 21  1  0
 20 22  2  0
 13 23  1  0
 23 24  2  0
 24 25  1  0
 25 26  2  0
 26 27  1  0
 27 28  2  0
 28 29  1  0
 29 30  1  0
 30 31  1  0
 31 32  1  0
 32 33  1  0
 33 34  1  0
 28 10  1  0
 34 30  1  0
 26 12  1  0
 22 15  1  0
  1 35  1  0
  1 36  1  0
  1 37  1  0
  3 38  1  0
  3 39  1  0
  3 40  1  0
  4 41  1  0
  4 42  1  0
  5 43  1  0
  6 44  1  0
  9 45  1  0
 11 46  1  0
 14 47  1  0
 16 48  1  0
 17 49  1  0
 22 50  1  0
 24 51  1  0
 27 52  1  0
 30 53  1  1
 31 54  1  0
 31 55  1  0
 32 56  1  0
 32 57  1  0
 34 58  1  0
 34 59  1  0
M  END
>  <meeko>  (4) 
{"is_sidechain": [false], "free_energy": -6.319, "intermolecular_energy": -9.427, "internal_energy": -1.599}

$$$$
6TAV_Afatinib_DIs38Xm_out
     RDKit          3D

 59 62  0  0  0  0  0  0  0  0999 V2000
   57.1280  125.5410   74.2380 C   0  0  0  0  0  0  0  0  0  0  0  0
   58.3150  126.3540   74.5110 N   0  0  0  0  0  0  0  0  0  0  0  0
   58.4130  126.6430   75.9420 C   0  0  0  0  0  0  0  0  0  0  0  0
   59.5190  125.6800   74.0400 C   0  0  0  0  0  0  0  0  0  0  0  0
   60.7250  126.5650   74.1460 C   0  0  0  0  0  0  0  0  0  0  0  0
   60.9290  127.6270   73.3550 C   0  0  0  0  0  0  0  0  0  0  0  0
   62.1690  127.7300   72.5290 C   0  0  0  0  0  0  0  0  0  0  0  0
   62.6860  126.7370   72.0300 O   0  0  0  0  0  0  0  0  0  0  0  0
   62.6130  129.0550   72.4280 N   0  0  0  0  0  0  0  0  0  0  0  0
   63.7310  129.5370   71.7420 C   0  0  0  0  0  0  0  0  0  0  0  0
   63.5710  130.1090   70.4850 C   0  0  0  0  0  0  0  0  0  0  0  0
   64.6910  130.5960   69.7880 C   0  0  0  0  0  0  0  0  0  0  0  0
   64.6020  131.1790   68.5260 C   0  0  0  0  0  0  0  0  0  0  0  0
   63.3340  131.2950   67.9030 N   0  0  0  0  0  0  0  0  0  0  0  0
   62.6170  130.4410   67.0490 C   0  0  0  0  0  0  0  0  0  0  0  0
   63.2710  129.3980   66.3950 C   0  0  0  0  0  0  0  0  0  0  0  0
   62.5580  128.5500   65.5470 C   0  0  0  0  0  0  0  0  0  0  0  0
   61.1890  128.7460   65.3550 C   0  0  0  0  0  0  0  0  0  0  0  0
   60.5180  127.9230   64.5370 F   0  0  0  0  0  0  0  0  0  0  0  0
   60.5350  129.7900   66.0090 C   0  0  0  0  0  0  0  0  0  0  0  0
   58.8470  130.0370   65.7750 Cl  0  0  0  0  0  0  0  0  0  0  0  0
   61.2490  130.6370   66.8570 C   0  0  0  0  0  0  0  0  0  0  0  0
   65.6580  131.6540   67.8410 N   0  0  0  0  0  0  0  0  0  0  0  0
   66.8370  131.5240   68.4700 C   0  0  0  0  0  0  0  0  0  0  0  0
   67.0560  130.9820   69.6860 N   0  0  0  0  0  0  0  0  0  0  0  0
   65.9790  130.5180   70.3430 C   0  0  0  0  0  0  0  0  0  0  0  0
   66.1080  129.9410   71.6040 C   0  0  0  0  0  0  0  0  0  0  0  0
   65.0010  129.4530   72.3030 C   0  0  0  0  0  0  0  0  0  0  0  0
   65.1880  128.8990   73.5340 O   0  0  0  0  0  0  0  0  0  0  0  0
   66.3100  128.0380   73.6910 C   0  0  1  0  0  0  0  0  0  0  0  0
   66.6010  127.8300   75.1570 C   0  0  0  0  0  0  0  0  0  0  0  0
   65.5740  126.7850   75.5410 C   0  0  0  0  0  0  0  0  0  0  0  0
   65.3360  125.9870   74.3730 O   0  0  0  0  0  0  0  0  0  0  0  0
   65.9270  126.6430   73.2380 C   0  0  0  0  0  0  0  0  0  0  0  0
   56.6713  125.2282   75.1886 H   0  0  0  0  0  0  0  0  0  0  0  0
   56.4030  126.1331   73.6602 H   0  0  0  0  0  0  0  0  0  0  0  0
   57.4181  124.6511   73.6602 H   0  0  0  0  0  0  0  0  0  0  0  0
   58.1118  125.7549   76.5169 H   0  0  0  0  0  0  0  0  0  0  0  0
   59.4510  126.9073   76.1925 H   0  0  0  0  0  0  0  0  0  0  0  0
   57.7498  127.4841   76.1925 H   0  0  0  0  0  0  0  0  0  0  0  0
   59.6838  124.7779   74.6475 H   0  0  0  0  0  0  0  0  0  0  0  0
   59.3754  125.4199   72.9809 H   0  0  0  0  0  0  0  0  0  0  0  0
   61.4797  126.3306   74.9112 H   0  0  0  0  0  0  0  0  0  0  0  0
   60.1774  128.4292   73.3137 H   0  0  0  0  0  0  0  0  0  0  0  0
   62.0670  129.7700   72.9040 H   0  0  0  0  0  0  0  0  0  0  0  0
   62.5693  130.1805   70.0361 H   0  0  0  0  0  0  0  0  0  0  0  0
   62.7570  132.0220   68.3170 H   0  0  0  0  0  0  0  0  0  0  0  0
   64.3494  129.2435   66.5475 H   0  0  0  0  0  0  0  0  0  0  0  0
   63.0741  127.7276   65.0300 H   0  0  0  0  0  0  0  0  0  0  0  0
   60.7334  131.4595   67.3743 H   0  0  0  0  0  0  0  0  0  0  0  0
   67.7214  131.9007   67.9353 H   0  0  0  0  0  0  0  0  0  0  0  0
   67.1059  129.8676   72.0609 H   0  0  0  0  0  0  0  0  0  0  0  0
   67.1476  128.4853   73.1358 H   0  0  0  0  0  0  0  0  0  0  0  0
   67.6249  127.4589   75.3118 H   0  0  0  0  0  0  0  0  0  0  0  0
   66.5389  128.7512   75.7549 H   0  0  0  0  0  0  0  0  0  0  0  0
   65.9606  126.1562   76.3566 H   0  0  0  0  0  0  0  0  0  0  0  0
   64.6443  127.2565   75.8923 H   0  0  0  0  0  0  0  0  0  0  0  0
   66.8203  126.0939   72.9056 H   0  0  0  0  0  0  0  0  0  0  0  0
   65.2240  126.6808   72.3928 H   0  0  0  0  0  0  0  0  0  0  0  0
  1  2  1  0
  2  3  1  0
  2  4  1  0
  4  5  1  0
  5  6  2  0
  6  7  1  0
  7  8  2  0
  7  9  1  0
  9 10  1  0
 10 11  2  0
 11 12  1  0
 12 13  2  0
 13 14  1  0
 14 15  1  0
 15 16  2  0
 16 17  1  0
 17 18  2  0
 18 19  1  0
 18 20  1  0
 20 21  1  0
 20 22  2  0
 13 23  1  0
 23 24  2  0
 24 25  1  0
 25 26  2  0
 26 27  1  0
 27 28  2  0
 28 29  1  0
 29 30  1  0
 30 31  1  0
 31 32  1  0
 32 33  1  0
 33 34  1  0
 28 10  1  0
 34 30  1  0
 26 12  1  0
 22 15  1  0
  1 35  1  0
  1 36  1  0
  1 37  1  0
  3 38  1  0
  3 39  1  0
  3 40  1  0
  4 41  1  0
  4 42  1  0
  5 43  1  0
  6 44  1  0
  9 45  1  0
 11 46  1  0
 14 47  1  0
 16 48  1  0
 17 49  1  0
 22 50  1  0
 24 51  1  0
 27 52  1  0
 30 53  1  6
 31 54  1  0
 31 55  1  0
 32 56  1  0
 32 57  1  0
 34 58  1  0
 34 59  1  0
M  END
>  <meeko>  (5) 
{"is_sidechain": [false], "free_energy": -6.255, "intermolecular_energy": -9.357, "internal_energy": -1.571}

$$$$
6TAV_Afatinib_DIs38Xm_out
     RDKit          3D

 59 62  0  0  0  0  0  0  0  0999 V2000
   53.7610   98.5650   73.1990 C   0  0  0  0  0  0  0  0  0  0  0  0
   54.6370   98.2110   72.0810 N   0  0  0  0  0  0  0  0  0  0  0  0
   54.7230   96.7560   71.9460 C   0  0  0  0  0  0  0  0  0  0  0  0
   54.1590   98.8130   70.8420 C   0  0  0  0  0  0  0  0  0  0  0  0
   53.2090   97.9060   70.1180 C   0  0  0  0  0  0  0  0  0  0  0  0
   53.1120   97.8590   68.7830 C   0  0  0  0  0  0  0  0  0  0  0  0
   52.3480   98.9060   68.0400 C   0  0  0  0  0  0  0  0  0  0  0  0
   52.7190   99.3070   66.9430 O   0  0  0  0  0  0  0  0  0  0  0  0
   51.2170   99.3220   68.7540 N   0  0  0  0  0  0  0  0  0  0  0  0
   50.2690  100.2780   68.3810 C   0  0  0  0  0  0  0  0  0  0  0  0
   49.0620   99.8680   67.8250 C   0  0  0  0  0  0  0  0  0  0  0  0
   48.1020  100.8230   67.4460 C   0  0  0  0  0  0  0  0  0  0  0  0
   46.8750  100.4810   66.8840 C   0  0  0  0  0  0  0  0  0  0  0  0
   46.5630   99.1140   66.6780 N   0  0  0  0  0  0  0  0  0  0  0  0
   46.6040   98.2940   65.5380 C   0  0  0  0  0  0  0  0  0  0  0  0
   47.5310   98.5500   64.5280 C   0  0  0  0  0  0  0  0  0  0  0  0
   47.5720   97.7350   63.3970 C   0  0  0  0  0  0  0  0  0  0  0  0
   46.6860   96.6630   63.2760 C   0  0  0  0  0  0  0  0  0  0  0  0
   46.7380   95.8900   62.1830 F   0  0  0  0  0  0  0  0  0  0  0  0
   45.7580   96.4080   64.2870 C   0  0  0  0  0  0  0  0  0  0  0  0
   44.6620   95.0880   64.1440 Cl  0  0  0  0  0  0  0  0  0  0  0  0
   45.7180   97.2230   65.4180 C   0  0  0  0  0  0  0  0  0  0  0  0
   45.9410  101.3770   66.5160 N   0  0  0  0  0  0  0  0  0  0  0  0
   46.2790  102.6580   66.7300 C   0  0  0  0  0  0  0  0  0  0  0  0
   47.4290  103.1180   67.2650 N   0  0  0  0  0  0  0  0  0  0  0  0
   48.3400  102.1960   67.6230 C   0  0  0  0  0  0  0  0  0  0  0  0
   49.5570  102.5780   68.1820 C   0  0  0  0  0  0  0  0  0  0  0  0
   50.5170  101.6350   68.5600 C   0  0  0  0  0  0  0  0  0  0  0  0
   51.6890  102.0670   69.1040 O   0  0  0  0  0  0  0  0  0  0  0  0
   51.6000  103.0150   70.1610 C   0  0  1  0  0  0  0  0  0  0  0  0
   51.0250  102.3630   71.3940 C   0  0  0  0  0  0  0  0  0  0  0  0
   52.2290  101.6400   71.9630 C   0  0  0  0  0  0  0  0  0  0  0  0
   53.3850  102.4060   71.5970 O   0  0  0  0  0  0  0  0  0  0  0  0
   52.9990  103.3820   70.6140 C   0  0  0  0  0  0  0  0  0  0  0  0
   54.2760   98.3569   74.1485 H   0  0  0  0  0  0  0  0  0  0  0  0
   53.5109   99.6348   73.1443 H   0  0  0  0  0  0  0  0  0  0  0  0
   52.8378   97.9694   73.1443 H   0  0  0  0  0  0  0  0  0  0  0  0
   54.7502   96.2961   72.9449 H   0  0  0  0  0  0  0  0  0  0  0  0
   53.8451   96.3863   71.3958 H   0  0  0  0  0  0  0  0  0  0  0  0
   55.6383   96.4923   71.3958 H   0  0  0  0  0  0  0  0  0  0  0  0
   53.6427   99.7550   71.0788 H   0  0  0  0  0  0  0  0  0  0  0  0
   55.0265   98.9935   70.1902 H   0  0  0  0  0  0  0  0  0  0  0  0
   52.5598   97.2467   70.7129 H   0  0  0  0  0  0  0  0  0  0  0  0
   53.5989   97.0428   68.2291 H   0  0  0  0  0  0  0  0  0  0  0  0
   51.0460   98.8870   69.6590 H   0  0  0  0  0  0  0  0  0  0  0  0
   48.8583   98.7966   67.6817 H   0  0  0  0  0  0  0  0  0  0  0  0
   46.5070   98.5880   67.5460 H   0  0  0  0  0  0  0  0  0  0  0  0
   48.2295   99.3944   64.6234 H   0  0  0  0  0  0  0  0  0  0  0  0
   48.3027   97.9370   62.6000 H   0  0  0  0  0  0  0  0  0  0  0  0
   44.9878   97.0214   66.2156 H   0  0  0  0  0  0  0  0  0  0  0  0
   45.5374  103.4158   66.4372 H   0  0  0  0  0  0  0  0  0  0  0  0
   49.7678  103.6475   68.3296 H   0  0  0  0  0  0  0  0  0  0  0  0
   51.0024  103.8616   69.7921 H   0  0  0  0  0  0  0  0  0  0  0  0
   50.6400  103.1138   72.0998 H   0  0  0  0  0  0  0  0  0  0  0  0
   50.1699  101.7027   71.1870 H   0  0  0  0  0  0  0  0  0  0  0  0
   52.1490  101.5754   73.0582 H   0  0  0  0  0  0  0  0  0  0  0  0
   52.2950  100.6147   71.5702 H   0  0  0  0  0  0  0  0  0  0  0  0
   53.0019  104.3885   71.0578 H   0  0  0  0  0  0  0  0  0  0  0  0
   53.7002  103.3883   69.7665 H   0  0  0  0  0  0  0  0  0  0  0  0
  1  2  1  0
  2  3  1  0
  2  4  1  0
  4  5  1  0
  5  6  2  0
  6  7  1  0
  7  8  2  0
  7  9  1  0
  9 10  1  0
 10 11  2  0
 11 12  1  0
 12 13  2  0
 13 14  1  0
 14 15  1  0
 15 16  2  0
 16 17  1  0
 17 18  2  0
 18 19  1  0
 18 20  1  0
 20 21  1  0
 20 22  2  0
 13 23  1  0
 23 24  2  0
 24 25  1  0
 25 26  2  0
 26 27  1  0
 27 28  2  0
 28 29  1  0
 29 30  1  0
 30 31  1  0
 31 32  1  0
 32 33  1  0
 33 34  1  0
 28 10  1  0
 34 30  1  0
 26 12  1  0
 22 15  1  0
  1 35  1  0
  1 36  1  0
  1 37  1  0
  3 38  1  0
  3 39  1  0
  3 40  1  0
  4 41  1  0
  4 42  1  0
  5 43  1  0
  6 44  1  0
  9 45  1  0
 11 46  1  0
 14 47  1  0
 16 48  1  0
 17 49  1  0
 22 50  1  0
 24 51  1  0
 27 52  1  0
 30 53  1  6
 31 54  1  0
 31 55  1  0
 32 56  1  0
 32 57  1  0
 34 58  1  0
 34 59  1  0
M  END
>  <meeko>  (6) 
{"is_sidechain": [false], "free_energy": -6.182, "intermolecular_energy": -9.168, "internal_energy": -1.648}

$$$$
6TAV_Afatinib_DIs38Xm_out
     RDKit          3D

 59 62  0  0  0  0  0  0  0  0999 V2000
   53.8210  131.6660   86.3460 C   0  0  0  0  0  0  0  0  0  0  0  0
   52.6220  130.8260   86.3350 N   0  0  0  0  0  0  0  0  0  0  0  0
   52.5390  130.0440   87.5690 C   0  0  0  0  0  0  0  0  0  0  0  0
   51.4250  131.6420   86.1630 C   0  0  0  0  0  0  0  0  0  0  0  0
   50.7480  131.3600   84.8550 C   0  0  0  0  0  0  0  0  0  0  0  0
   50.0700  130.2320   84.6080 C   0  0  0  0  0  0  0  0  0  0  0  0
   50.2380  129.5160   83.3070 C   0  0  0  0  0  0  0  0  0  0  0  0
   50.5630  128.3350   83.2680 O   0  0  0  0  0  0  0  0  0  0  0  0
   49.9810  130.3590   82.2180 N   0  0  0  0  0  0  0  0  0  0  0  0
   50.0370  130.0470   80.8570 C   0  0  0  0  0  0  0  0  0  0  0  0
   49.0040  129.3170   80.2780 C   0  0  0  0  0  0  0  0  0  0  0  0
   49.0520  128.9980   78.9090 C   0  0  0  0  0  0  0  0  0  0  0  0
   48.0530  128.2710   78.2660 C   0  0  0  0  0  0  0  0  0  0  0  0
   46.9310  127.8260   79.0090 N   0  0  0  0  0  0  0  0  0  0  0  0
   46.5790  126.5710   79.5320 C   0  0  0  0  0  0  0  0  0  0  0  0
   47.3900  125.4630   79.2950 C   0  0  0  0  0  0  0  0  0  0  0  0
   47.0400  124.2170   79.8150 C   0  0  0  0  0  0  0  0  0  0  0  0
   45.8770  124.0800   80.5730 C   0  0  0  0  0  0  0  0  0  0  0  0
   45.5530  122.8760   81.0660 F   0  0  0  0  0  0  0  0  0  0  0  0
   45.0640  125.1880   80.8110 C   0  0  0  0  0  0  0  0  0  0  0  0
   43.6270  125.0260   81.7450 Cl  0  0  0  0  0  0  0  0  0  0  0  0
   45.4150  126.4340   80.2910 C   0  0  0  0  0  0  0  0  0  0  0  0
   48.0760  127.9550   76.9590 N   0  0  0  0  0  0  0  0  0  0  0  0
   49.1560  128.3970   76.2950 C   0  0  0  0  0  0  0  0  0  0  0  0
   50.1870  129.1080   76.7990 N   0  0  0  0  0  0  0  0  0  0  0  0
   50.1310  129.4070   78.1090 C   0  0  0  0  0  0  0  0  0  0  0  0
   51.1510  130.1370   78.7160 C   0  0  0  0  0  0  0  0  0  0  0  0
   51.1110  130.4570   80.0760 C   0  0  0  0  0  0  0  0  0  0  0  0
   52.1370  131.1750   80.6150 O   0  0  0  0  0  0  0  0  0  0  0  0
   53.4310  130.5840   80.5710 C   0  0  1  0  0  0  0  0  0  0  0  0
   54.4270  131.4700   81.2780 C   0  0  0  0  0  0  0  0  0  0  0  0
   54.1760  131.1340   82.7340 C   0  0  0  0  0  0  0  0  0  0  0  0
   53.7380  129.7690   82.7760 O   0  0  0  0  0  0  0  0  0  0  0  0
   53.4350  129.3400   81.4370 C   0  0  0  0  0  0  0  0  0  0  0  0
   54.1149  131.8719   87.3858 H   0  0  0  0  0  0  0  0  0  0  0  0
   54.6398  131.1430   85.8302 H   0  0  0  0  0  0  0  0  0  0  0  0
   53.6091  132.6142   85.8302 H   0  0  0  0  0  0  0  0  0  0  0  0
   52.6105  130.7178   88.4356 H   0  0  0  0  0  0  0  0  0  0  0  0
   51.5789  129.5080   87.5995 H   0  0  0  0  0  0  0  0  0  0  0  0
   53.3652  129.3184   87.5995 H   0  0  0  0  0  0  0  0  0  0  0  0
   50.7238  131.4243   86.9821 H   0  0  0  0  0  0  0  0  0  0  0  0
   51.7254  132.7001   86.1739 H   0  0  0  0  0  0  0  0  0  0  0  0
   50.8115  132.1169   84.0594 H   0  0  0  0  0  0  0  0  0  0  0  0
   49.3844  129.8294   85.3682 H   0  0  0  0  0  0  0  0  0  0  0  0
   49.7200  131.3220   82.4210 H   0  0  0  0  0  0  0  0  0  0  0  0
   48.1507  128.9897   80.8901 H   0  0  0  0  0  0  0  0  0  0  0  0
   46.4000  128.5910   79.4160 H   0  0  0  0  0  0  0  0  0  0  0  0
   48.3071  125.5711   78.6973 H   0  0  0  0  0  0  0  0  0  0  0  0
   47.6808  123.3428   79.6275 H   0  0  0  0  0  0  0  0  0  0  0  0
   44.7748  127.3086   80.4789 H   0  0  0  0  0  0  0  0  0  0  0  0
   49.2062  128.1532   75.2235 H   0  0  0  0  0  0  0  0  0  0  0  0
   52.0075  130.4691   78.1109 H   0  0  0  0  0  0  0  0  0  0  0  0
   53.6744  130.4045   79.5134 H   0  0  0  0  0  0  0  0  0  0  0  0
   55.4582  131.2248   80.9840 H   0  0  0  0  0  0  0  0  0  0  0  0
   54.3112  132.5388   81.0448 H   0  0  0  0  0  0  0  0  0  0  0  0
   55.1026  131.2522   83.3149 H   0  0  0  0  0  0  0  0  0  0  0  0
   53.4196  131.8042   83.1685 H   0  0  0  0  0  0  0  0  0  0  0  0
   54.2006  128.6341   81.0828 H   0  0  0  0  0  0  0  0  0  0  0  0
   52.4629  128.8268   81.3966 H   0  0  0  0  0  0  0  0  0  0  0  0
  1  2  1  0
  2  3  1  0
  2  4  1  0
  4  5  1  0
  5  6  2  0
  6  7  1  0
  7  8  2  0
  7  9  1  0
  9 10  1  0
 10 11  2  0
 11 12  1  0
 12 13  2  0
 13 14  1  0
 14 15  1  0
 15 16  2  0
 16 17  1  0
 17 18  2  0
 18 19  1  0
 18 20  1  0
 20 21  1  0
 20 22  2  0
 13 23  1  0
 23 24  2  0
 24 25  1  0
 25 26  2  0
 26 27  1  0
 27 28  2  0
 28 29  1  0
 29 30  1  0
 30 31  1  0
 31 32  1  0
 32 33  1  0
 33 34  1  0
 28 10  1  0
 34 30  1  0
 26 12  1  0
 22 15  1  0
  1 35  1  0
  1 36  1  0
  1 37  1  0
  3 38  1  0
  3 39  1  0
  3 40  1  0
  4 41  1  0
  4 42  1  0
  5 43  1  0
  6 44  1  0
  9 45  1  0
 11 46  1  0
 14 47  1  0
 16 48  1  0
 17 49  1  0
 22 50  1  0
 24 51  1  0
 27 52  1  0
 30 53  1  6
 31 54  1  0
 31 55  1  0
 32 56  1  0
 32 57  1  0
 34 58  1  0
 34 59  1  0
M  END
>  <meeko>  (7) 
{"is_sidechain": [false], "free_energy": -6.159, "intermolecular_energy": -9.028, "internal_energy": -1.753}

$$$$
6TAV_Afatinib_DIs38Xm_out
     RDKit          3D

 59 62  0  0  0  0  0  0  0  0999 V2000
   48.2900  128.7350   76.5940 C   0  0  0  0  0  0  0  0  0  0  0  0
   49.6670  129.1420   76.8800 N   0  0  0  0  0  0  0  0  0  0  0  0
   50.1060  130.1550   75.9190 C   0  0  0  0  0  0  0  0  0  0  0  0
   49.7810  129.6460   78.2440 C   0  0  0  0  0  0  0  0  0  0  0  0
   50.2590  128.5820   79.1870 C   0  0  0  0  0  0  0  0  0  0  0  0
   51.1540  127.6460   78.8450 C   0  0  0  0  0  0  0  0  0  0  0  0
   52.1800  127.1840   79.8270 C   0  0  0  0  0  0  0  0  0  0  0  0
   51.9470  126.2680   80.6080 O   0  0  0  0  0  0  0  0  0  0  0  0
   53.3680  127.9170   79.7160 N   0  0  0  0  0  0  0  0  0  0  0  0
   54.5410  127.7720   80.4610 C   0  0  0  0  0  0  0  0  0  0  0  0
   55.5760  126.9860   79.9670 C   0  0  0  0  0  0  0  0  0  0  0  0
   56.7600  126.8340   80.7110 C   0  0  0  0  0  0  0  0  0  0  0  0
   57.8330  126.0620   80.2740 C   0  0  0  0  0  0  0  0  0  0  0  0
   57.7460  125.3930   79.0280 N   0  0  0  0  0  0  0  0  0  0  0  0
   58.3000  125.6620   77.7660 C   0  0  0  0  0  0  0  0  0  0  0  0
   59.6600  125.4520   77.5420 C   0  0  0  0  0  0  0  0  0  0  0  0
   60.2100  125.7200   76.2880 C   0  0  0  0  0  0  0  0  0  0  0  0
   59.3980  126.1980   75.2580 C   0  0  0  0  0  0  0  0  0  0  0  0
   59.9420  126.4510   74.0590 F   0  0  0  0  0  0  0  0  0  0  0  0
   58.0380  126.4090   75.4830 C   0  0  0  0  0  0  0  0  0  0  0  0
   57.0320  126.9990   74.2170 Cl  0  0  0  0  0  0  0  0  0  0  0  0
   57.4880  126.1410   76.7370 C   0  0  0  0  0  0  0  0  0  0  0  0
   58.9760  125.9030   80.9680 N   0  0  0  0  0  0  0  0  0  0  0  0
   59.0140  126.5550   82.1400 C   0  0  0  0  0  0  0  0  0  0  0  0
   58.0470  127.3320   82.6720 N   0  0  0  0  0  0  0  0  0  0  0  0
   56.9190  127.4690   81.9530 C   0  0  0  0  0  0  0  0  0  0  0  0
   55.8660  128.2510   82.4230 C   0  0  0  0  0  0  0  0  0  0  0  0
   54.6860  128.4060   81.6910 C   0  0  0  0  0  0  0  0  0  0  0  0
   53.6900  129.1840   82.2000 O   0  0  0  0  0  0  0  0  0  0  0  0
   53.9040  130.5910   82.1980 C   0  0  1  0  0  0  0  0  0  0  0  0
   53.1320  131.2290   81.0690 C   0  0  0  0  0  0  0  0  0  0  0  0
   51.7320  131.3070   81.6450 C   0  0  0  0  0  0  0  0  0  0  0  0
   51.8740  131.4560   83.0640 O   0  0  0  0  0  0  0  0  0  0  0  0
   53.2420  131.1930   83.4210 C   0  0  0  0  0  0  0  0  0  0  0  0
   47.7509  128.5757   77.5395 H   0  0  0  0  0  0  0  0  0  0  0  0
   47.7877  129.5231   76.0138 H   0  0  0  0  0  0  0  0  0  0  0  0
   48.2969  127.8005   76.0138 H   0  0  0  0  0  0  0  0  0  0  0  0
   50.4867  131.0335   76.4605 H   0  0  0  0  0  0  0  0  0  0  0  0
   50.9047  129.7393   75.2871 H   0  0  0  0  0  0  0  0  0  0  0  0
   49.2565  130.4535   75.2871 H   0  0  0  0  0  0  0  0  0  0  0  0
   50.4956  130.4821   78.2572 H   0  0  0  0  0  0  0  0  0  0  0  0
   48.7847  129.9759   78.5736 H   0  0  0  0  0  0  0  0  0  0  0  0
   49.8546  128.5698   80.2099 H   0  0  0  0  0  0  0  0  0  0  0  0
   51.1332  127.2144   77.8334 H   0  0  0  0  0  0  0  0  0  0  0  0
   53.4020  128.6520   79.0110 H   0  0  0  0  0  0  0  0  0  0  0  0
   55.4690  126.4831   78.9946 H   0  0  0  0  0  0  0  0  0  0  0  0
   57.4010  124.4400   79.1170 H   0  0  0  0  0  0  0  0  0  0  0  0
   60.2994  125.0751   78.3539 H   0  0  0  0  0  0  0  0  0  0  0  0
   61.2830  125.5547   76.1111 H   0  0  0  0  0  0  0  0  0  0  0  0
   56.4152  126.3071   76.9144 H   0  0  0  0  0  0  0  0  0  0  0  0
   59.9342  126.4442   82.7323 H   0  0  0  0  0  0  0  0  0  0  0  0
   55.9661  128.7586   83.3937 H   0  0  0  0  0  0  0  0  0  0  0  0
   54.9897  130.7576   82.1383 H   0  0  0  0  0  0  0  0  0  0  0  0
   53.5231  132.2298   80.8336 H   0  0  0  0  0  0  0  0  0  0  0  0
   53.1905  130.6714   80.1226 H   0  0  0  0  0  0  0  0  0  0  0  0
   51.1978  132.1721   81.2253 H   0  0  0  0  0  0  0  0  0  0  0  0
   51.1540  130.4039   81.3995 H   0  0  0  0  0  0  0  0  0  0  0  0
   53.7467  132.1288   83.7031 H   0  0  0  0  0  0  0  0  0  0  0  0
   53.3018  130.5086   84.2801 H   0  0  0  0  0  0  0  0  0  0  0  0
  1  2  1  0
  2  3  1  0
  2  4  1  0
  4  5  1  0
  5  6  2  0
  6  7  1  0
  7  8  2  0
  7  9  1  0
  9 10  1  0
 10 11  2  0
 11 12  1  0
 12 13  2  0
 13 14  1  0
 14 15  1  0
 15 16  2  0
 16 17  1  0
 17 18  2  0
 18 19  1  0
 18 20  1  0
 20 21  1  0
 20 22  2  0
 13 23  1  0
 23 24  2  0
 24 25  1  0
 25 26  2  0
 26 27  1  0
 27 28  2  0
 28 29  1  0
 29 30  1  0
 30 31  1  0
 31 32  1  0
 32 33  1  0
 33 34  1  0
 28 10  1  0
 34 30  1  0
 26 12  1  0
 22 15  1  0
  1 35  1  0
  1 36  1  0
  1 37  1  0
  3 38  1  0
  3 39  1  0
  3 40  1  0
  4 41  1  0
  4 42  1  0
  5 43  1  0
  6 44  1  0
  9 45  1  0
 11 46  1  0
 14 47  1  0
 16 48  1  0
 17 49  1  0
 22 50  1  0
 24 51  1  0
 27 52  1  0
 30 53  1  6
 31 54  1  0
 31 55  1  0
 32 56  1  0
 32 57  1  0
 34 58  1  0
 34 59  1  0
M  END
>  <meeko>  (8) 
{"is_sidechain": [false], "free_energy": -5.98, "intermolecular_energy": -8.842, "internal_energy": -1.666}

$$$$
6TAV_Afatinib_DIs38Xm_out
     RDKit          3D

 59 62  0  0  0  0  0  0  0  0999 V2000
   58.4940  126.5700   76.2930 C   0  0  0  0  0  0  0  0  0  0  0  0
   59.4010  125.5160   75.8360 N   0  0  0  0  0  0  0  0  0  0  0  0
   58.7080  124.6140   74.9160 C   0  0  0  0  0  0  0  0  0  0  0  0
   60.5790  126.0930   75.1980 C   0  0  0  0  0  0  0  0  0  0  0  0
   60.3110  126.4520   73.7670 C   0  0  0  0  0  0  0  0  0  0  0  0
   60.9310  127.4570   73.1330 C   0  0  0  0  0  0  0  0  0  0  0  0
   62.3820  127.3590   72.7930 C   0  0  0  0  0  0  0  0  0  0  0  0
   62.8320  126.3860   72.1970 O   0  0  0  0  0  0  0  0  0  0  0  0
   63.0930  128.4810   73.2370 N   0  0  0  0  0  0  0  0  0  0  0  0
   64.4590  128.7420   73.1010 C   0  0  0  0  0  0  0  0  0  0  0  0
   64.9100  129.4930   72.0210 C   0  0  0  0  0  0  0  0  0  0  0  0
   66.2830  129.7610   71.8770 C   0  0  0  0  0  0  0  0  0  0  0  0
   66.8020  130.5050   70.8200 C   0  0  0  0  0  0  0  0  0  0  0  0
   65.9210  131.0230   69.8380 N   0  0  0  0  0  0  0  0  0  0  0  0
   65.0830  130.4060   68.8960 C   0  0  0  0  0  0  0  0  0  0  0  0
   65.5340  129.2940   68.1840 C   0  0  0  0  0  0  0  0  0  0  0  0
   64.7010  128.6800   67.2490 C   0  0  0  0  0  0  0  0  0  0  0  0
   63.4170  129.1790   67.0240 C   0  0  0  0  0  0  0  0  0  0  0  0
   62.6290  128.5780   66.1210 F   0  0  0  0  0  0  0  0  0  0  0  0
   62.9660  130.2910   67.7360 C   0  0  0  0  0  0  0  0  0  0  0  0
   61.3830  130.9110   67.4630 Cl  0  0  0  0  0  0  0  0  0  0  0  0
   63.7990  130.9040   68.6710 C   0  0  0  0  0  0  0  0  0  0  0  0
   68.1110  130.7750   70.6620 N   0  0  0  0  0  0  0  0  0  0  0  0
   68.9070  130.2650   71.6150 C   0  0  0  0  0  0  0  0  0  0  0  0
   68.5300  129.5320   72.6840 N   0  0  0  0  0  0  0  0  0  0  0  0
   67.2150  129.2820   72.8120 C   0  0  0  0  0  0  0  0  0  0  0  0
   66.7350  128.5330   73.8840 C   0  0  0  0  0  0  0  0  0  0  0  0
   65.3720  128.2620   74.0340 C   0  0  0  0  0  0  0  0  0  0  0  0
   64.9590  127.5240   75.1030 O   0  0  0  0  0  0  0  0  0  0  0  0
   65.6810  126.3300   75.3810 C   0  0  1  0  0  0  0  0  0  0  0  0
   65.2160  125.7370   76.6890 C   0  0  0  0  0  0  0  0  0  0  0  0
   63.9390  125.0310   76.2820 C   0  0  0  0  0  0  0  0  0  0  0  0
   64.1090  124.6170   74.9190 O   0  0  0  0  0  0  0  0  0  0  0  0
   65.2760  125.2640   74.3830 C   0  0  0  0  0  0  0  0  0  0  0  0
   58.4780  126.5886   77.3927 H   0  0  0  0  0  0  0  0  0  0  0  0
   58.8420  127.5426   75.9149 H   0  0  0  0  0  0  0  0  0  0  0  0
   57.4804  126.3709   75.9149 H   0  0  0  0  0  0  0  0  0  0  0  0
   58.1370  123.8708   75.4918 H   0  0  0  0  0  0  0  0  0  0  0  0
   58.0208  125.1937   74.2822 H   0  0  0  0  0  0  0  0  0  0  0  0
   59.4452  124.0993   74.2822 H   0  0  0  0  0  0  0  0  0  0  0  0
   60.8726  127.0011   75.7450 H   0  0  0  0  0  0  0  0  0  0  0  0
   61.3842  125.3439   75.2200 H   0  0  0  0  0  0  0  0  0  0  0  0
   59.5688  125.8613   73.2100 H   0  0  0  0  0  0  0  0  0  0  0  0
   60.3667  128.3612   72.8609 H   0  0  0  0  0  0  0  0  0  0  0  0
   62.5690  129.2080   73.7200 H   0  0  0  0  0  0  0  0  0  0  0  0
   64.1935  129.8771   71.2800 H   0  0  0  0  0  0  0  0  0  0  0  0
   65.6970  132.0040   69.9880 H   0  0  0  0  0  0  0  0  0  0  0  0
   66.5464  128.9017   68.3601 H   0  0  0  0  0  0  0  0  0  0  0  0
   65.0559  127.8024   66.6888 H   0  0  0  0  0  0  0  0  0  0  0  0
   63.4437  131.7811   69.2319 H   0  0  0  0  0  0  0  0  0  0  0  0
   69.9837  130.4663   71.5138 H   0  0  0  0  0  0  0  0  0  0  0  0
   67.4450  128.1459   74.6297 H   0  0  0  0  0  0  0  0  0  0  0  0
   66.7512  126.5841   75.3686 H   0  0  0  0  0  0  0  0  0  0  0  0
   65.9542  125.0270   77.0902 H   0  0  0  0  0  0  0  0  0  0  0  0
   65.0750  126.4811   77.4867 H   0  0  0  0  0  0  0  0  0  0  0  0
   63.7694  124.1549   76.9252 H   0  0  0  0  0  0  0  0  0  0  0  0
   63.0700  125.6973   76.3860 H   0  0  0  0  0  0  0  0  0  0  0  0
   66.0895  124.5344   74.2568 H   0  0  0  0  0  0  0  0  0  0  0  0
   65.0660  125.7047   73.3972 H   0  0  0  0  0  0  0  0  0  0  0  0
  1  2  1  0
  2  3  1  0
  2  4  1  0
  4  5  1  0
  5  6  2  0
  6  7  1  0
  7  8  2  0
  7  9  1  0
  9 10  1  0
 10 11  2  0
 11 12  1  0
 12 13  2  0
 13 14  1  0
 14 15  1  0
 15 16  2  0
 16 17  1  0
 17 18  2  0
 18 19  1  0
 18 20  1  0
 20 21  1  0
 20 22  2  0
 13 23  1  0
 23 24  2  0
 24 25  1  0
 25 26  2  0
 26 27  1  0
 27 28  2  0
 28 29  1  0
 29 30  1  0
 30 31  1  0
 31 32  1  0
 32 33  1  0
 33 34  1  0
 28 10  1  0
 34 30  1  0
 26 12  1  0
 22 15  1  0
  1 35  1  0
  1 36  1  0
  1 37  1  0
  3 38  1  0
  3 39  1  0
  3 40  1  0
  4 41  1  0
  4 42  1  0
  5 43  1  0
  6 44  1  0
  9 45  1  0
 11 46  1  0
 14 47  1  0
 16 48  1  0
 17 49  1  0
 22 50  1  0
 24 51  1  0
 27 52  1  0
 30 53  1  1
 31 54  1  0
 31 55  1  0
 32 56  1  0
 32 57  1  0
 34 58  1  0
 34 59  1  0
M  END
>  <meeko>  (9) 
{"is_sidechain": [false], "free_energy": -5.938, "intermolecular_energy": -8.756, "internal_energy": -1.687}

$$$$
